furosemide
  MOE2002           3D

 32 33  0  0  0  0  0  0  0  0  1 V2000
   -0.8380    1.3560    0.2360 C   0  0  0  0  0  0  0  0  0  0  0  0
   -0.0150    0.2450    0.5660 C   0  0  0  0  0  0  0  0  0  0  0  0
   -2.2280    1.1540    0.0770 C   0  0  0  0  0  0  0  0  0  0  0  0
   -2.8750    1.9910   -0.1380 H   0  0  0  0  0  0  0  0  0  0  0  0
   -0.3180    2.6500   -0.0140 C   0  0  0  0  0  0  0  0  0  0  0  0
   -0.5780   -1.0510    0.5650 C   0  0  0  0  0  0  0  0  0  0  0  0
    0.0260   -1.9260    0.7380 H   0  0  0  0  0  0  0  0  0  0  0  0
    1.2600    0.4300    0.9800 N   0  0  0  0  0  0  0  0  0  0  0  0
    1.6360    1.3530    1.1310 H   0  0  0  0  0  0  0  0  0  0  0  0
   -2.7890   -0.1330    0.1250 C   0  0  0  0  0  0  0  0  0  0  0  0
   -1.1440    3.7370    0.0210 O   0  0  0  0  0  0  0  0  0  0  0  0
   -0.6960    4.5640   -0.1750 H   0  0  0  0  0  0  0  0  0  0  0  0
    0.8610    2.8290   -0.3070 O   0  0  0  0  0  0  0  0  0  0  0  0
   -1.9550   -1.2440    0.3570 C   0  0  0  0  0  0  0  0  0  0  0  0
    2.2900   -0.5220    1.4220 C   0  0  0  0  0  0  0  0  0  0  0  0
    1.9230   -1.5360    1.5670 H   0  0  0  0  0  0  0  0  0  0  0  0
    2.6810   -0.1690    2.3770 H   0  0  0  0  0  0  0  0  0  0  0  0
   -4.5490   -0.3350   -0.1740 S   0  0  0  0  0  0  0  0  0  0  0  0
   -2.5940   -2.8810    0.4310 Cl  0  0  0  0  0  0  0  0  0  0  0  0
    3.4200   -0.5360    0.4160 C   0  0  0  0  0  0  0  0  0  0  0  0
   -4.7820   -1.3620   -1.4920 N   0  0  0  0  0  0  0  0  0  0  0  0
   -5.3310   -2.0440   -1.2060 H   0  0  0  0  0  0  0  0  0  0  0  0
   -5.2540   -0.8860   -2.1230 H   0  0  0  0  0  0  0  0  0  0  0  0
   -5.1520    0.9420   -0.4610 O   0  0  0  0  0  0  0  0  0  0  0  0
   -5.1720   -0.9010    0.9930 O   0  0  0  0  0  0  0  0  0  0  0  0
    3.4240   -1.2550   -0.7830 C   0  0  0  0  0  0  0  0  0  0  0  0
    2.6190   -1.8490   -1.1930 H   0  0  0  0  0  0  0  0  0  0  0  0
    4.5910    0.0390    0.5960 O   0  0  0  0  0  0  0  0  0  0  0  0
    4.6920   -1.0600   -1.3280 C   0  0  0  0  0  0  0  0  0  0  0  0
    5.0710   -1.4670   -2.2540 H   0  0  0  0  0  0  0  0  0  0  0  0
    5.3780   -0.2410   -0.4240 C   0  0  0  0  0  0  0  0  0  0  0  0
    6.3950    0.1080   -0.5250 H   0  0  0  0  0  0  0  0  0  0  0  0
  1  3  1  0  0  0  0
  1  2  2  0  0  0  0
  1  5  1  0  0  0  0
  2  6  1  0  0  0  0
  2  8  1  0  0  0  0
  3  4  1  0  0  0  0
  3 10  2  0  0  0  0
  5 11  1  0  0  0  0
  5 13  2  0  0  0  0
  6  7  1  0  0  0  0
  6 14  2  0  0  0  0
  8  9  1  0  0  0  0
  8 15  1  0  0  0  0
 10 14  1  0  0  0  0
 10 18  1  0  0  0  0
 11 12  1  0  0  0  0
 14 19  1  0  0  0  0
 15 16  1  0  0  0  0
 15 17  1  0  0  0  0
 15 20  1  0  0  0  0
 18 21  1  0  0  0  0
 18 24  2  0  0  0  0
 18 25  2  0  0  0  0
 20 26  2  0  0  0  0
 20 28  1  0  0  0  0
 21 23  1  0  0  0  0
 21 22  1  0  0  0  0
 26 27  1  0  0  0  0
 26 29  1  0  0  0  0
 28 31  1  0  0  0  0
 29 30  1  0  0  0  0
 29 31  2  0  0  0  0
 31 32  1  0  0  0  0
M  END
>  <name>
furosemide

>  <activity>
-6.5

>  <logD>
-1.21

>  <rgyr>
3.77187

>  <HCPSA>
125.96

>  <fROTB>
0.212121

$$$$
guanabenz
  MOE2002           3D

 22 22  0  0  0  0  0  0  0  0  1 V2000
   -1.1660   -0.2740   -0.3110 C   0  0  0  0  0  0  0  0  0  0  0  0
   -1.4180    1.1220   -0.2740 C   0  0  0  0  0  0  0  0  0  0  0  0
   -2.2260   -1.1750   -0.0370 C   0  0  0  0  0  0  0  0  0  0  0  0
    0.1430   -0.7960   -0.6380 C   0  0  0  0  0  0  0  0  0  0  0  0
    0.2110   -1.6100   -1.1710 H   0  0  0  0  0  0  0  0  0  0  0  0
   -2.6960    1.5990    0.0760 C   0  0  0  0  0  0  0  0  0  0  0  0
   -2.8930    2.6610    0.1020 H   0  0  0  0  0  0  0  0  0  0  0  0
   -0.2240    2.3080   -0.7910 Cl  0  0  0  0  0  0  0  0  0  0  0  0
   -3.5000   -0.6810    0.3060 C   0  0  0  0  0  0  0  0  0  0  0  0
   -4.3080   -1.3640    0.5280 H   0  0  0  0  0  0  0  0  0  0  0  0
   -1.9870   -2.9200   -0.0330 Cl  0  0  0  0  0  0  0  0  0  0  0  0
    1.1760   -0.2870   -0.1660 N   0  0  0  0  0  0  0  0  0  0  0  0
   -3.7320    0.7010    0.3780 C   0  0  0  0  0  0  0  0  0  0  0  0
   -4.7070    1.0730    0.6560 H   0  0  0  0  0  0  0  0  0  0  0  0
    2.2890   -0.7310   -0.3550 N   0  0  0  0  0  0  0  0  0  0  0  0
    2.4320   -1.5810   -0.8900 H   0  0  0  0  0  0  0  0  0  0  0  0
    3.3970   -0.1060    0.1420 C   0  0  0  0  0  0  0  0  0  0  0  0
    3.3180    1.0430    0.8740 N   0  0  0  0  0  0  0  0  0  0  0  0
    2.4480    1.5060    1.0950 H   0  0  0  0  0  0  0  0  0  0  0  0
    4.1280    1.5190    1.2450 H   0  0  0  0  0  0  0  0  0  0  0  0
    4.6210   -0.6370   -0.1170 N   0  0  0  0  0  0  0  0  0  0  0  0
    4.6940   -1.3700   -0.6180 H   0  0  0  0  0  0  0  0  0  0  0  0
  1  2  2  0  0  0  0
  1  3  1  0  0  0  0
  1  4  1  0  0  0  0
  2  8  1  0  0  0  0
  2  6  1  0  0  0  0
  3 11  1  0  0  0  0
  3  9  2  0  0  0  0
  4  5  1  0  0  0  0
  4 12  2  0  0  0  0
  6 13  2  0  0  0  0
  6  7  1  0  0  0  0
  9 13  1  0  0  0  0
  9 10  1  0  0  0  0
 12 15  1  0  0  0  0
 13 14  1  0  0  0  0
 15 16  1  0  0  0  0
 15 17  1  0  0  0  0
 17 18  1  0  0  0  0
 17 21  2  0  0  0  0
 18 20  1  0  0  0  0
 18 19  1  0  0  0  0
 21 22  1  0  0  0  0
M  END
>  <name>
guanabenz

>  <activity>
-4.5

>  <logD>
1.67

>  <rgyr>
3.00601

>  <HCPSA>
75.04

>  <fROTB>
0.181818

$$$$
fleroxacin
  MOE2002           3D

 44 46  0  0  0  0  0  0  0  0  1 V2000
   -1.8210    0.0710    0.4420 C   0  0  0  0  0  0  0  0  0  0  0  0
   -2.2070   -1.2220    0.0110 C   0  0  0  0  0  0  0  0  0  0  0  0
   -2.7170    1.0890    0.5890 N   0  0  0  0  0  0  0  0  0  0  0  0
   -0.4520    0.3160    0.7280 C   0  0  0  0  0  0  0  0  0  0  0  0
   -3.5700   -1.5460   -0.1530 C   0  0  0  0  0  0  0  0  0  0  0  0
   -1.2130   -2.1700   -0.3080 C   0  0  0  0  0  0  0  0  0  0  0  0
   -1.4750   -3.1340   -0.7190 H   0  0  0  0  0  0  0  0  0  0  0  0
   -4.0960    0.7480    0.4030 C   0  0  0  0  0  0  0  0  0  0  0  0
   -4.8400    1.5030    0.6070 H   0  0  0  0  0  0  0  0  0  0  0  0
   -2.5100    2.5360    0.3270 C   0  0  0  0  0  0  0  0  0  0  0  0
   -1.8890    2.9720    1.1090 H   0  0  0  0  0  0  0  0  0  0  0  0
   -3.4450    3.0990    0.3400 H   0  0  0  0  0  0  0  0  0  0  0  0
    0.5460   -0.6380    0.4120 C   0  0  0  0  0  0  0  0  0  0  0  0
   -0.1280    1.3620    1.4730 F   0  0  0  0  0  0  0  0  0  0  0  0
   -4.5390   -0.4890    0.0660 C   0  0  0  0  0  0  0  0  0  0  0  0
   -3.8700   -2.6970   -0.4730 O   0  0  0  0  0  0  0  0  0  0  0  0
    0.1480   -1.8670   -0.1570 C   0  0  0  0  0  0  0  0  0  0  0  0
   -1.8550    2.7720   -1.0390 C   0  0  0  0  0  0  0  0  0  0  0  0
   -0.8730    2.3000   -1.0850 H   0  0  0  0  0  0  0  0  0  0  0  0
   -2.4860    2.3530   -1.8250 H   0  0  0  0  0  0  0  0  0  0  0  0
    1.8590   -0.3840    0.6550 N   0  0  0  0  0  0  0  0  0  0  0  0
   -5.9740   -0.7240   -0.0680 C   0  0  0  0  0  0  0  0  0  0  0  0
    1.0350   -2.7050   -0.6710 F   0  0  0  0  0  0  0  0  0  0  0  0
   -1.7090    4.1000   -1.2490 F   0  0  0  0  0  0  0  0  0  0  0  0
    2.5210    0.9450    0.6350 C   0  0  0  0  0  0  0  0  0  0  0  0
    2.4700    1.4080    1.6210 H   0  0  0  0  0  0  0  0  0  0  0  0
    1.9840    1.5770   -0.0740 H   0  0  0  0  0  0  0  0  0  0  0  0
    2.8800   -1.3650    1.0760 C   0  0  0  0  0  0  0  0  0  0  0  0
    2.4580   -2.3500    1.2780 H   0  0  0  0  0  0  0  0  0  0  0  0
    3.2840   -1.0130    2.0270 H   0  0  0  0  0  0  0  0  0  0  0  0
   -6.4400   -1.9980   -0.2230 O   0  0  0  0  0  0  0  0  0  0  0  0
   -7.3940   -2.0460   -0.3060 H   0  0  0  0  0  0  0  0  0  0  0  0
   -6.8140    0.1740   -0.0470 O   0  0  0  0  0  0  0  0  0  0  0  0
    3.9920    0.9040    0.1790 C   0  0  0  0  0  0  0  0  0  0  0  0
    4.2100    1.8340   -0.3500 H   0  0  0  0  0  0  0  0  0  0  0  0
    4.6620    0.8250    1.0370 H   0  0  0  0  0  0  0  0  0  0  0  0
    4.0460   -1.4850    0.0820 C   0  0  0  0  0  0  0  0  0  0  0  0
    4.9450   -1.6530    0.6780 H   0  0  0  0  0  0  0  0  0  0  0  0
    3.9090   -2.3360   -0.5880 H   0  0  0  0  0  0  0  0  0  0  0  0
    4.1860   -0.2490   -0.7240 N   0  0  0  0  0  0  0  0  0  0  0  0
    5.5420   -0.2120   -1.3140 C   0  0  0  0  0  0  0  0  0  0  0  0
    6.3030   -0.2100   -0.5310 H   0  0  0  0  0  0  0  0  0  0  0  0
    5.6870   -1.0830   -1.9540 H   0  0  0  0  0  0  0  0  0  0  0  0
    5.6530    0.6880   -1.9190 H   0  0  0  0  0  0  0  0  0  0  0  0
  1  2  1  0  0  0  0
  1  4  2  0  0  0  0
  1  3  1  0  0  0  0
  2  6  2  0  0  0  0
  2  5  1  0  0  0  0
  3 10  1  0  0  0  0
  3  8  1  0  0  0  0
  4 13  1  0  0  0  0
  4 14  1  0  0  0  0
  5 15  1  0  0  0  0
  5 16  2  0  0  0  0
  6  7  1  0  0  0  0
  6 17  1  0  0  0  0
  8  9  1  0  0  0  0
  8 15  2  0  0  0  0
 10 11  1  0  0  0  0
 10 12  1  0  0  0  0
 10 18  1  0  0  0  0
 13 17  2  0  0  0  0
 13 21  1  0  0  0  0
 15 22  1  0  0  0  0
 17 23  1  0  0  0  0
 18 19  1  0  0  0  0
 18 20  1  0  0  0  0
 18 24  1  0  0  0  0
 21 25  1  0  0  0  0
 21 28  1  0  0  0  0
 22 31  1  0  0  0  0
 22 33  2  0  0  0  0
 25 26  1  0  0  0  0
 25 27  1  0  0  0  0
 25 34  1  0  0  0  0
 28 29  1  0  0  0  0
 28 30  1  0  0  0  0
 28 37  1  0  0  0  0
 31 32  1  0  0  0  0
 34 35  1  0  0  0  0
 34 36  1  0  0  0  0
 34 40  1  0  0  0  0
 37 38  1  0  0  0  0
 37 39  1  0  0  0  0
 37 40  1  0  0  0  0
 40 41  1  0  0  0  0
 41 43  1  0  0  0  0
 41 44  1  0  0  0  0
 41 42  1  0  0  0  0
M  END
>  <name>
fleroxacin

>  <activity>
-4.81

>  <logD>
-0.29

>  <rgyr>
3.93444

>  <HCPSA>
63.28

>  <fROTB>
0.130435

$$$$
mibefradil
  MOE2002           3D

 74 77  0  0  1  0  0  0  0  0  1 V2000
   -2.2760   -0.1920    0.2480 C   0  0  2  0  0  0  0  0  0  0  0  0
   -3.0210    0.8320   -0.6760 C   0  0  2  0  0  0  0  0  0  0  0  0
   -2.3460    0.2750    1.7180 C   0  0  0  0  0  0  0  0  0  0  0  0
   -1.8430    1.2350    1.8140 H   0  0  0  0  0  0  0  0  0  0  0  0
   -1.8500   -0.4420    2.3750 H   0  0  0  0  0  0  0  0  0  0  0  0
   -0.7540   -0.3380   -0.0420 C   0  0  0  0  0  0  0  0  0  0  0  0
   -0.6220   -0.9040   -0.9530 H   0  0  0  0  0  0  0  0  0  0  0  0
   -0.3350   -0.9680    0.7440 H   0  0  0  0  0  0  0  0  0  0  0  0
   -2.7330   -1.5390    0.1040 O   0  0  0  0  0  0  0  0  0  0  0  0
   -4.2640    1.5020   -0.0570 C   0  0  0  0  0  0  0  0  0  0  0  0
   -3.2250    0.4130   -2.1680 C   0  0  0  0  0  0  0  0  0  0  0  0
   -3.4440    1.3290   -2.7160 H   0  0  0  0  0  0  0  0  0  0  0  0
   -3.7540    0.5230    2.2440 C   0  0  0  0  0  0  0  0  0  0  0  0
   -4.2330   -0.4130    2.5240 H   0  0  0  0  0  0  0  0  0  0  0  0
   -3.6560    1.1060    3.1600 H   0  0  0  0  0  0  0  0  0  0  0  0
    0.1180    0.9370   -0.0760 C   0  0  0  0  0  0  0  0  0  0  0  0
   -0.2080    1.6450   -0.8370 H   0  0  0  0  0  0  0  0  0  0  0  0
    0.0330    1.4150    0.8970 H   0  0  0  0  0  0  0  0  0  0  0  0
   -3.8670   -2.0350    0.5590 C   0  0  0  0  0  0  0  0  0  0  0  0
   -4.6380    1.2910    1.2910 C   0  0  0  0  0  0  0  0  0  0  0  0
   -5.0030    2.4450   -0.8100 C   0  0  0  0  0  0  0  0  0  0  0  0
   -4.6810    2.7630   -1.7890 H   0  0  0  0  0  0  0  0  0  0  0  0
   -2.0080   -0.1360   -2.9230 C   0  0  0  0  0  0  0  0  0  0  0  0
   -1.8340   -1.1790   -2.6650 H   0  0  0  0  0  0  0  0  0  0  0  0
   -2.2030   -0.0910   -3.9950 H   0  0  0  0  0  0  0  0  0  0  0  0
   -1.1230    0.4660   -2.7180 H   0  0  0  0  0  0  0  0  0  0  0  0
   -4.4180   -0.5210   -2.4260 C   0  0  0  0  0  0  0  0  0  0  0  0
   -4.6320   -0.5360   -3.4940 H   0  0  0  0  0  0  0  0  0  0  0  0
   -4.1850   -1.5390   -2.1190 H   0  0  0  0  0  0  0  0  0  0  0  0
   -5.3130   -0.1730   -1.9100 H   0  0  0  0  0  0  0  0  0  0  0  0
    1.5550    0.6140   -0.2870 N   0  0  0  0  0  0  0  0  0  0  0  0
   -3.8500   -3.3460    1.3380 C   0  0  0  0  0  0  0  0  0  0  0  0
   -2.8660   -3.4870    1.7880 H   0  0  0  0  0  0  0  0  0  0  0  0
   -4.6000   -3.2960    2.1280 H   0  0  0  0  0  0  0  0  0  0  0  0
   -4.9380   -1.4740    0.3420 O   0  0  0  0  0  0  0  0  0  0  0  0
   -5.8330    1.8410    1.7930 C   0  0  0  0  0  0  0  0  0  0  0  0
   -6.1350    1.6330    2.8100 H   0  0  0  0  0  0  0  0  0  0  0  0
   -6.1820    3.0140   -0.2980 C   0  0  0  0  0  0  0  0  0  0  0  0
   -6.7460    3.7110   -0.8980 H   0  0  0  0  0  0  0  0  0  0  0  0
    2.3430    1.8370    0.0190 C   0  0  0  0  0  0  0  0  0  0  0  0
    2.1410    2.1390    1.0480 H   0  0  0  0  0  0  0  0  0  0  0  0
    2.0500    2.6540   -0.6420 H   0  0  0  0  0  0  0  0  0  0  0  0
    1.7780    0.2230   -1.7030 C   0  0  0  0  0  0  0  0  0  0  0  0
    2.8220   -0.0350   -1.8670 H   0  0  0  0  0  0  0  0  0  0  0  0
    1.2010   -0.6620   -1.9620 H   0  0  0  0  0  0  0  0  0  0  0  0
    1.5020    1.0380   -2.3740 H   0  0  0  0  0  0  0  0  0  0  0  0
   -4.1420   -4.4130    0.4550 O   0  0  0  0  0  0  0  0  0  0  0  0
   -6.6200    2.6800    0.9920 C   0  0  0  0  0  0  0  0  0  0  0  0
    3.8610    1.6190   -0.0840 C   0  0  0  0  0  0  0  0  0  0  0  0
    4.3480    2.5120    0.3100 H   0  0  0  0  0  0  0  0  0  0  0  0
    4.1660    1.5140   -1.1250 H   0  0  0  0  0  0  0  0  0  0  0  0
   -4.2270   -5.6550    1.1280 C   0  0  0  0  0  0  0  0  0  0  0  0
   -5.0470   -5.6400    1.8470 H   0  0  0  0  0  0  0  0  0  0  0  0
   -4.4160   -6.4400    0.3960 H   0  0  0  0  0  0  0  0  0  0  0  0
   -3.2920   -5.8730    1.6460 H   0  0  0  0  0  0  0  0  0  0  0  0
   -7.7390    3.2030    1.4710 F   0  0  0  0  0  0  0  0  0  0  0  0
    4.3450    0.4090    0.7250 C   0  0  0  0  0  0  0  0  0  0  0  0
    4.0260    0.5210    1.7610 H   0  0  0  0  0  0  0  0  0  0  0  0
    3.9100   -0.5070    0.3260 H   0  0  0  0  0  0  0  0  0  0  0  0
    5.8440    0.2610    0.6980 C   0  0  0  0  0  0  0  0  0  0  0  0
    6.5550   -0.4820   -0.2180 N   0  0  0  0  0  0  0  0  0  0  0  0
    6.1080   -1.0670   -0.9090 H   0  0  0  0  0  0  0  0  0  0  0  0
    6.7220    0.9760    1.4770 N   0  0  0  0  0  0  0  0  0  0  0  0
    7.9270   -0.3030   -0.0640 C   0  0  0  0  0  0  0  0  0  0  0  0
    7.9880    0.6330    1.0260 C   0  0  0  0  0  0  0  0  0  0  0  0
    9.0700   -0.8030   -0.7060 C   0  0  0  0  0  0  0  0  0  0  0  0
    8.9800   -1.5040   -1.5220 H   0  0  0  0  0  0  0  0  0  0  0  0
    9.2780    1.0390    1.4320 C   0  0  0  0  0  0  0  0  0  0  0  0
    9.3800    1.7430    2.2450 H   0  0  0  0  0  0  0  0  0  0  0  0
   10.3320   -0.3700   -0.2690 C   0  0  0  0  0  0  0  0  0  0  0  0
   11.2270   -0.7400   -0.7500 H   0  0  0  0  0  0  0  0  0  0  0  0
   10.4330    0.5480    0.7920 C   0  0  0  0  0  0  0  0  0  0  0  0
   11.4060    0.8820    1.1190 H   0  0  0  0  0  0  0  0  0  0  0  0
   -2.3460    1.6810   -0.7360 H   0  0  0  0  0  0  0  0  0  0  0  0
  1  3  1  0  0  0  0
  1  6  1  0  0  0  0
  1  2  1  0  0  0  0
  1  9  1  0  0  0  0
  2 74  1  0  0  0  0
  2 11  1  0  0  0  0
  2 10  1  0  0  0  0
  3  4  1  0  0  0  0
  3  5  1  0  0  0  0
  3 13  1  0  0  0  0
  6  7  1  0  0  0  0
  6  8  1  0  0  0  0
  6 16  1  0  0  0  0
  9 19  1  0  0  0  0
 10 21  1  0  0  0  0
 10 20  2  0  0  0  0
 11 12  1  0  0  0  0
 11 27  1  0  0  0  0
 11 23  1  0  0  0  0
 13 14  1  0  0  0  0
 13 15  1  0  0  0  0
 13 20  1  0  0  0  0
 16 17  1  0  0  0  0
 16 18  1  0  0  0  0
 16 31  1  0  0  0  0
 19 32  1  0  0  0  0
 19 35  2  0  0  0  0
 20 36  1  0  0  0  0
 21 22  1  0  0  0  0
 21 38  2  0  0  0  0
 23 25  1  0  0  0  0
 23 26  1  0  0  0  0
 23 24  1  0  0  0  0
 27 29  1  0  0  0  0
 27 30  1  0  0  0  0
 27 28  1  0  0  0  0
 31 43  1  0  0  0  0
 31 40  1  0  0  0  0
 32 33  1  0  0  0  0
 32 34  1  0  0  0  0
 32 47  1  0  0  0  0
 36 37  1  0  0  0  0
 36 48  2  0  0  0  0
 38 39  1  0  0  0  0
 38 48  1  0  0  0  0
 40 41  1  0  0  0  0
 40 42  1  0  0  0  0
 40 49  1  0  0  0  0
 43 45  1  0  0  0  0
 43 46  1  0  0  0  0
 43 44  1  0  0  0  0
 47 52  1  0  0  0  0
 48 56  1  0  0  0  0
 49 50  1  0  0  0  0
 49 51  1  0  0  0  0
 49 57  1  0  0  0  0
 52 54  1  0  0  0  0
 52 55  1  0  0  0  0
 52 53  1  0  0  0  0
 57 58  1  0  0  0  0
 57 59  1  0  0  0  0
 57 60  1  0  0  0  0
 60 61  1  0  0  0  0
 60 63  2  0  0  0  0
 61 62  1  0  0  0  0
 61 64  1  0  0  0  0
 63 65  1  0  0  0  0
 64 66  2  0  0  0  0
 64 65  1  0  0  0  0
 65 68  2  0  0  0  0
 66 67  1  0  0  0  0
 66 70  1  0  0  0  0
 68 69  1  0  0  0  0
 68 72  1  0  0  0  0
 70 71  1  0  0  0  0
 70 72  2  0  0  0  0
 72 73  1  0  0  0  0
M  END
>  <name>
mibefradil

>  <activity>
-4.87

>  <logD>
3.66

>  <rgyr>
5.90811

>  <HCPSA>
51.9

>  <fROTB>
0.207792

$$$$
verapamil
  MOE2002           3D

 71 72  0  0  1  0  0  0  0  0  1 V2000
   -2.4890   -0.9710   -1.0400 C   0  0  2  0  0  0  0  0  0  0  0  0
   -3.6990   -0.1150   -0.6040 C   0  0  0  0  0  0  0  0  0  0  0  0
   -2.1370   -2.0480    0.0390 C   0  0  0  0  0  0  0  0  0  0  0  0
   -3.0890   -2.5040    0.3200 H   0  0  0  0  0  0  0  0  0  0  0  0
   -1.7550   -1.5860    0.9440 H   0  0  0  0  0  0  0  0  0  0  0  0
   -1.2720   -0.0620   -1.3930 C   0  0  0  0  0  0  0  0  0  0  0  0
   -0.4580   -0.6760   -1.7640 H   0  0  0  0  0  0  0  0  0  0  0  0
   -2.8590   -1.7160   -2.2220 C   0  0  0  0  0  0  0  0  0  0  0  0
   -3.8440    0.2620    0.7500 C   0  0  0  0  0  0  0  0  0  0  0  0
   -3.1240   -0.0400    1.4930 H   0  0  0  0  0  0  0  0  0  0  0  0
   -4.6230    0.4140   -1.5380 C   0  0  0  0  0  0  0  0  0  0  0  0
   -4.5420    0.2280   -2.5980 H   0  0  0  0  0  0  0  0  0  0  0  0
   -1.2190   -3.2590   -0.2840 C   0  0  0  0  0  0  0  0  0  0  0  0
   -1.3910   -4.0020    0.4940 H   0  0  0  0  0  0  0  0  0  0  0  0
   -1.5240   -3.7400   -1.2130 H   0  0  0  0  0  0  0  0  0  0  0  0
   -0.7350    0.7510   -0.2020 C   0  0  0  0  0  0  0  0  0  0  0  0
   -1.4770    1.4710    0.1390 H   0  0  0  0  0  0  0  0  0  0  0  0
   -0.4540    0.1150    0.6320 H   0  0  0  0  0  0  0  0  0  0  0  0
    0.1530    1.3010   -0.5140 H   0  0  0  0  0  0  0  0  0  0  0  0
   -1.5550    0.9680   -2.5050 C   0  0  0  0  0  0  0  0  0  0  0  0
   -2.2940    1.7000   -2.1770 H   0  0  0  0  0  0  0  0  0  0  0  0
   -0.6340    1.5010   -2.7450 H   0  0  0  0  0  0  0  0  0  0  0  0
   -1.9050    0.4880   -3.4190 H   0  0  0  0  0  0  0  0  0  0  0  0
   -3.1810   -2.3720   -3.2590 N   0  0  0  0  0  0  0  0  0  0  0  0
   -4.9100    1.0820    1.1670 C   0  0  0  0  0  0  0  0  0  0  0  0
   -5.6700    1.2450   -1.1070 C   0  0  0  0  0  0  0  0  0  0  0  0
   -6.3780    1.6280   -1.8290 H   0  0  0  0  0  0  0  0  0  0  0  0
    0.2970   -3.0030   -0.3570 C   0  0  0  0  0  0  0  0  0  0  0  0
    0.8280   -3.9550   -0.4130 H   0  0  0  0  0  0  0  0  0  0  0  0
    0.4940   -2.4760   -1.2870 H   0  0  0  0  0  0  0  0  0  0  0  0
   -5.7830    1.6010    0.2480 C   0  0  0  0  0  0  0  0  0  0  0  0
   -4.9960    1.4660    2.4790 O   0  0  0  0  0  0  0  0  0  0  0  0
    0.7950   -2.2030    0.7920 N   0  0  0  0  0  0  0  0  0  0  0  0
   -6.8030    2.4200    0.6600 O   0  0  0  0  0  0  0  0  0  0  0  0
   -5.5620    0.3800    3.1970 C   0  0  0  0  0  0  0  0  0  0  0  0
   -4.9320   -0.5100    3.1470 H   0  0  0  0  0  0  0  0  0  0  0  0
   -5.6510    0.6720    4.2430 H   0  0  0  0  0  0  0  0  0  0  0  0
   -6.5600    0.1440    2.8210 H   0  0  0  0  0  0  0  0  0  0  0  0
    2.1990   -1.8070    0.5080 C   0  0  0  0  0  0  0  0  0  0  0  0
    2.2250   -1.2960   -0.4580 H   0  0  0  0  0  0  0  0  0  0  0  0
    2.8430   -2.6890    0.4520 H   0  0  0  0  0  0  0  0  0  0  0  0
    0.7390   -3.0130    2.0380 C   0  0  0  0  0  0  0  0  0  0  0  0
    1.3680   -3.9030    1.9440 H   0  0  0  0  0  0  0  0  0  0  0  0
    1.0800   -2.4260    2.8880 H   0  0  0  0  0  0  0  0  0  0  0  0
   -0.2890   -3.3100    2.2570 H   0  0  0  0  0  0  0  0  0  0  0  0
   -6.4320    3.7500    0.3280 C   0  0  0  0  0  0  0  0  0  0  0  0
   -7.2100    4.4220    0.6910 H   0  0  0  0  0  0  0  0  0  0  0  0
   -5.4900    4.0260    0.8070 H   0  0  0  0  0  0  0  0  0  0  0  0
   -6.3450    3.8850   -0.7520 H   0  0  0  0  0  0  0  0  0  0  0  0
    2.7410   -0.8070    1.5410 C   0  0  0  0  0  0  0  0  0  0  0  0
    2.9290   -1.3120    2.4890 H   0  0  0  0  0  0  0  0  0  0  0  0
    1.9910   -0.0320    1.7110 H   0  0  0  0  0  0  0  0  0  0  0  0
    4.0290   -0.1300    1.1070 C   0  0  0  0  0  0  0  0  0  0  0  0
    3.9940    1.0000    0.2670 C   0  0  0  0  0  0  0  0  0  0  0  0
    3.0430    1.4030   -0.0480 H   0  0  0  0  0  0  0  0  0  0  0  0
    5.2700   -0.6130    1.5540 C   0  0  0  0  0  0  0  0  0  0  0  0
    5.3210   -1.4680    2.2130 H   0  0  0  0  0  0  0  0  0  0  0  0
    5.1930    1.6140   -0.1530 C   0  0  0  0  0  0  0  0  0  0  0  0
    6.4540    0.0320    1.1570 C   0  0  0  0  0  0  0  0  0  0  0  0
    7.4000   -0.3160    1.5440 H   0  0  0  0  0  0  0  0  0  0  0  0
    6.4040    1.1310    0.2760 C   0  0  0  0  0  0  0  0  0  0  0  0
    5.1490    2.7760   -0.8820 O   0  0  0  0  0  0  0  0  0  0  0  0
    7.5570    1.7910   -0.0670 O   0  0  0  0  0  0  0  0  0  0  0  0
    4.8190    2.4300   -2.2190 C   0  0  0  0  0  0  0  0  0  0  0  0
    3.8220    1.9950   -2.2870 H   0  0  0  0  0  0  0  0  0  0  0  0
    4.8320    3.3420   -2.8180 H   0  0  0  0  0  0  0  0  0  0  0  0
    5.5500    1.7360   -2.6380 H   0  0  0  0  0  0  0  0  0  0  0  0
    8.2840    0.9530   -0.9560 C   0  0  0  0  0  0  0  0  0  0  0  0
    9.1650    1.4990   -1.2920 H   0  0  0  0  0  0  0  0  0  0  0  0
    8.6220    0.0390   -0.4650 H   0  0  0  0  0  0  0  0  0  0  0  0
    7.6850    0.6980   -1.8320 H   0  0  0  0  0  0  0  0  0  0  0  0
  1  3  1  0  0  0  0
  1  6  1  0  0  0  0
  1  2  1  0  0  0  0
  1  8  1  0  0  0  0
  2 11  2  0  0  0  0
  2  9  1  0  0  0  0
  3  4  1  0  0  0  0
  3  5  1  0  0  0  0
  3 13  1  0  0  0  0
  6  7  1  0  0  0  0
  6 20  1  0  0  0  0
  6 16  1  0  0  0  0
  8 24  3  0  0  0  0
  9 10  1  0  0  0  0
  9 25  2  0  0  0  0
 11 12  1  0  0  0  0
 11 26  1  0  0  0  0
 13 14  1  0  0  0  0
 13 15  1  0  0  0  0
 13 28  1  0  0  0  0
 16 18  1  0  0  0  0
 16 19  1  0  0  0  0
 16 17  1  0  0  0  0
 20 22  1  0  0  0  0
 20 23  1  0  0  0  0
 20 21  1  0  0  0  0
 25 31  1  0  0  0  0
 25 32  1  0  0  0  0
 26 27  1  0  0  0  0
 26 31  2  0  0  0  0
 28 29  1  0  0  0  0
 28 30  1  0  0  0  0
 28 33  1  0  0  0  0
 31 34  1  0  0  0  0
 32 35  1  0  0  0  0
 33 42  1  0  0  0  0
 33 39  1  0  0  0  0
 34 46  1  0  0  0  0
 35 37  1  0  0  0  0
 35 38  1  0  0  0  0
 35 36  1  0  0  0  0
 39 40  1  0  0  0  0
 39 41  1  0  0  0  0
 39 50  1  0  0  0  0
 42 44  1  0  0  0  0
 42 45  1  0  0  0  0
 42 43  1  0  0  0  0
 46 48  1  0  0  0  0
 46 49  1  0  0  0  0
 46 47  1  0  0  0  0
 50 51  1  0  0  0  0
 50 52  1  0  0  0  0
 50 53  1  0  0  0  0
 53 56  2  0  0  0  0
 53 54  1  0  0  0  0
 54 55  1  0  0  0  0
 54 58  2  0  0  0  0
 56 57  1  0  0  0  0
 56 59  1  0  0  0  0
 58 61  1  0  0  0  0
 58 62  1  0  0  0  0
 59 60  1  0  0  0  0
 59 61  2  0  0  0  0
 61 63  1  0  0  0  0
 62 64  1  0  0  0  0
 63 68  1  0  0  0  0
 64 66  1  0  0  0  0
 64 67  1  0  0  0  0
 64 65  1  0  0  0  0
 68 70  1  0  0  0  0
 68 71  1  0  0  0  0
 68 69  1  0  0  0  0
M  END
>  <name>
verapamil

>  <activity>
-4.58

>  <logD>
2.07

>  <rgyr>
5.14284

>  <HCPSA>
61.58

>  <fROTB>
0.291667

$$$$
