guanoxan
  MOE2002           3D

 28 29  0  0  1  0  0  0  0  0  1 V2000
    3.1880    1.8460   -0.0050 C   0  0  0  0  0  0  0  0  0  0  0  0
    3.6150    2.8380    0.0340 H   0  0  0  0  0  0  0  0  0  0  0  0
    3.8570    0.8160   -0.6820 C   0  0  0  0  0  0  0  0  0  0  0  0
    4.8030    1.0080   -1.1670 H   0  0  0  0  0  0  0  0  0  0  0  0
    3.2800   -0.4630   -0.7400 C   0  0  0  0  0  0  0  0  0  0  0  0
    3.7850   -1.2480   -1.2860 H   0  0  0  0  0  0  0  0  0  0  0  0
    2.0440   -0.7250   -0.1150 C   0  0  0  0  0  0  0  0  0  0  0  0
    1.3950    0.2890    0.5710 C   0  0  0  0  0  0  0  0  0  0  0  0
    1.9660    1.5750    0.6300 C   0  0  0  0  0  0  0  0  0  0  0  0
    1.4600    2.3640    1.1690 H   0  0  0  0  0  0  0  0  0  0  0  0
    1.4710   -1.9530   -0.3540 O   0  0  0  0  0  0  0  0  0  0  0  0
    0.4850   -2.2100    0.6280 C   0  0  0  0  0  0  0  0  0  0  0  0
    0.9570   -2.4140    1.5910 H   0  0  0  0  0  0  0  0  0  0  0  0
   -0.0800   -3.0920    0.3270 H   0  0  0  0  0  0  0  0  0  0  0  0
   -0.4630   -1.0200    0.7600 C   0  0  1  0  0  0  0  0  0  0  0  0
    0.2460    0.0840    1.2960 O   0  0  0  0  0  0  0  0  0  0  0  0
   -1.1770   -0.6730   -0.5570 C   0  0  0  0  0  0  0  0  0  0  0  0
   -0.4550   -0.4540   -1.3450 H   0  0  0  0  0  0  0  0  0  0  0  0
   -1.7630   -1.5320   -0.8790 H   0  0  0  0  0  0  0  0  0  0  0  0
   -2.0150    0.5320   -0.3560 N   0  0  0  0  0  0  0  0  0  0  0  0
   -1.5970    1.3010   -0.1900 H   0  0  0  0  0  0  0  0  0  0  0  0
   -3.3760    0.5120   -0.2450 C   0  0  0  0  0  0  0  0  0  0  0  0
   -4.0280    1.6730    0.0240 N   0  0  0  0  0  0  0  0  0  0  0  0
   -5.0280    1.7260    0.1410 H   0  0  0  0  0  0  0  0  0  0  0  0
   -3.5570    2.5580    0.1580 H   0  0  0  0  0  0  0  0  0  0  0  0
   -4.0940   -0.6380   -0.3680 N   0  0  0  0  0  0  0  0  0  0  0  0
   -3.6840   -1.4120   -0.5260 H   0  0  0  0  0  0  0  0  0  0  0  0
   -1.2330   -1.2880    1.4860 H   0  0  0  0  0  0  0  0  0  0  0  0
  1  2  1  0  0  0  0
  1  3  2  0  0  0  0
  1  9  1  0  0  0  0
  3  4  1  0  0  0  0
  3  5  1  0  0  0  0
  5  6  1  0  0  0  0
  5  7  2  0  0  0  0
  7  8  1  0  0  0  0
  7 11  1  0  0  0  0
  8  9  2  0  0  0  0
  8 16  1  0  0  0  0
  9 10  1  0  0  0  0
 11 12  1  0  0  0  0
 12 13  1  0  0  0  0
 12 14  1  0  0  0  0
 12 15  1  0  0  0  0
 15 28  1  0  0  0  0
 15 17  1  0  0  0  0
 15 16  1  0  0  0  0
 17 18  1  0  0  0  0
 17 19  1  0  0  0  0
 17 20  1  0  0  0  0
 20 21  1  0  0  0  0
 20 22  1  0  0  0  0
 22 23  1  0  0  0  0
 22 26  2  0  0  0  0
 23 25  1  0  0  0  0
 23 24  1  0  0  0  0
 26 27  1  0  0  0  0
M  END
>  <name>
guanoxan

>  <activity>
-4.71

>  <logD>
-0.83

>  <rgyr>
2.93436

>  <HCPSA>
84.07

>  <fROTB>
0.137931

$$$$
saquinavir
  MOE2002           3D

 99103  0  0  1  0  0  0  0  0  1 V2000
   -3.0830    0.9320   -0.8100 N   0  0  0  0  0  0  0  0  0  0  0  0
   -2.9960    2.1380    0.0640 C   0  0  1  0  0  0  0  0  0  0  0  0
   -3.1710    1.4130   -2.2180 C   0  0  0  0  0  0  0  0  0  0  0  0
   -3.4320    0.5710   -2.8590 H   0  0  0  0  0  0  0  0  0  0  0  0
   -2.1930    1.7800   -2.5370 H   0  0  0  0  0  0  0  0  0  0  0  0
   -1.8570    0.0830   -0.7160 C   0  0  0  0  0  0  0  0  0  0  0  0
   -0.9790    0.7010   -0.5240 H   0  0  0  0  0  0  0  0  0  0  0  0
   -1.6960   -0.4220   -1.6710 H   0  0  0  0  0  0  0  0  0  0  0  0
   -4.3430    2.8970    0.0550 C   0  0  0  0  0  0  0  0  0  0  0  0
   -4.1270    3.9520    0.2330 H   0  0  0  0  0  0  0  0  0  0  0  0
   -4.9910    2.5540    0.8650 H   0  0  0  0  0  0  0  0  0  0  0  0
   -2.6020    1.8580    1.5220 C   0  0  0  0  0  0  0  0  0  0  0  0
   -4.1580    2.5850   -2.4130 C   0  0  2  0  0  0  0  0  0  0  0  0
   -2.0150   -1.0750    0.2910 C   0  0  2  0  0  0  0  0  0  0  0  0
   -5.1360    2.7660   -1.2510 C   0  0  1  0  0  0  0  0  0  0  0  0
   -1.4380    2.3860    1.9350 N   0  0  0  0  0  0  0  0  0  0  0  0
   -0.8670    2.8440    1.2380 H   0  0  0  0  0  0  0  0  0  0  0  0
   -3.3740    1.2550    2.2660 O   0  0  0  0  0  0  0  0  0  0  0  0
   -4.9280    2.4960   -3.7400 C   0  0  0  0  0  0  0  0  0  0  0  0
   -4.2300    2.2980   -4.5560 H   0  0  0  0  0  0  0  0  0  0  0  0
   -5.4080    3.4580   -3.9280 H   0  0  0  0  0  0  0  0  0  0  0  0
   -0.6720   -1.7990    0.5310 C   0  0  2  0  0  0  0  0  0  0  0  0
   -2.9910   -1.9610   -0.2180 O   0  0  0  0  0  0  0  0  0  0  0  0
   -2.6800   -2.3130   -1.0550 H   0  0  0  0  0  0  0  0  0  0  0  0
   -6.1770    1.6330   -1.2200 C   0  0  0  0  0  0  0  0  0  0  0  0
   -6.8720    1.7980   -0.3960 H   0  0  0  0  0  0  0  0  0  0  0  0
   -5.6970    0.6630   -1.0780 H   0  0  0  0  0  0  0  0  0  0  0  0
   -1.0100    2.5690    3.3230 C   0  0  0  0  0  0  0  0  0  0  0  0
   -6.0110    1.4050   -3.7050 C   0  0  0  0  0  0  0  0  0  0  0  0
   -5.5530    0.4180   -3.6150 H   0  0  0  0  0  0  0  0  0  0  0  0
   -6.5740    1.4380   -4.6400 H   0  0  0  0  0  0  0  0  0  0  0  0
   -0.8900   -3.0890    1.3500 C   0  0  0  0  0  0  0  0  0  0  0  0
   -1.5600   -2.8450    2.1770 H   0  0  0  0  0  0  0  0  0  0  0  0
    0.0470   -3.4020    1.8070 H   0  0  0  0  0  0  0  0  0  0  0  0
    0.1830   -0.8990    1.2970 N   0  0  0  0  0  0  0  0  0  0  0  0
   -0.3070   -0.3720    2.0030 H   0  0  0  0  0  0  0  0  0  0  0  0
   -6.9730    1.6200   -2.5290 C   0  0  0  0  0  0  0  0  0  0  0  0
   -7.4930    2.5730   -2.6480 H   0  0  0  0  0  0  0  0  0  0  0  0
   -7.7070    0.8120   -2.5060 H   0  0  0  0  0  0  0  0  0  0  0  0
    0.3400    3.3020    3.3170 C   0  0  0  0  0  0  0  0  0  0  0  0
    1.0800    2.7180    2.7690 H   0  0  0  0  0  0  0  0  0  0  0  0
    0.2330    4.2750    2.8340 H   0  0  0  0  0  0  0  0  0  0  0  0
    0.6920    3.4490    4.3380 H   0  0  0  0  0  0  0  0  0  0  0  0
   -0.8230    1.2310    4.0550 C   0  0  0  0  0  0  0  0  0  0  0  0
   -0.5600    1.4210    5.0960 H   0  0  0  0  0  0  0  0  0  0  0  0
   -1.7320    0.6310    4.0370 H   0  0  0  0  0  0  0  0  0  0  0  0
   -0.0120    0.6650    3.6040 H   0  0  0  0  0  0  0  0  0  0  0  0
   -2.0230    3.4440    4.0790 C   0  0  0  0  0  0  0  0  0  0  0  0
   -1.6550    3.6540    5.0840 H   0  0  0  0  0  0  0  0  0  0  0  0
   -2.1640    4.3900    3.5530 H   0  0  0  0  0  0  0  0  0  0  0  0
   -2.9860    2.9400    4.1660 H   0  0  0  0  0  0  0  0  0  0  0  0
   -1.4450   -4.2870    0.5900 C   0  0  0  0  0  0  0  0  0  0  0  0
    1.5020   -0.6560    1.1900 C   0  0  0  0  0  0  0  0  0  0  0  0
   -2.5920   -4.9500    1.0700 C   0  0  0  0  0  0  0  0  0  0  0  0
   -3.0860   -4.6050    1.9670 H   0  0  0  0  0  0  0  0  0  0  0  0
   -0.8050   -4.7680   -0.5720 C   0  0  0  0  0  0  0  0  0  0  0  0
    0.0820   -4.2900   -0.9560 H   0  0  0  0  0  0  0  0  0  0  0  0
    2.3570   -1.3730    0.1230 C   0  0  1  0  0  0  0  0  0  0  0  0
    2.0300    0.1630    1.9400 O   0  0  0  0  0  0  0  0  0  0  0  0
   -3.1060   -6.0660    0.3870 C   0  0  0  0  0  0  0  0  0  0  0  0
   -3.9890   -6.5650    0.7580 H   0  0  0  0  0  0  0  0  0  0  0  0
   -1.3180   -5.8870   -1.2510 C   0  0  0  0  0  0  0  0  0  0  0  0
   -0.8230   -6.2510   -2.1400 H   0  0  0  0  0  0  0  0  0  0  0  0
    3.6310   -0.6860   -0.1010 N   0  0  0  0  0  0  0  0  0  0  0  0
    3.7530   -0.2670   -1.0120 H   0  0  0  0  0  0  0  0  0  0  0  0
    2.6000   -2.8620    0.4330 C   0  0  0  0  0  0  0  0  0  0  0  0
    2.9980   -2.9900    1.4400 H   0  0  0  0  0  0  0  0  0  0  0  0
    1.6570   -3.3930    0.3870 H   0  0  0  0  0  0  0  0  0  0  0  0
   -2.4690   -6.5350   -0.7740 C   0  0  0  0  0  0  0  0  0  0  0  0
   -2.8610   -7.3970   -1.2960 H   0  0  0  0  0  0  0  0  0  0  0  0
    4.6560   -0.6250    0.7690 C   0  0  0  0  0  0  0  0  0  0  0  0
    3.5220   -3.5330   -0.5870 C   0  0  0  0  0  0  0  0  0  0  0  0
    5.8670   -0.0070    0.3850 C   0  0  0  0  0  0  0  0  0  0  0  0
    4.5670   -1.1060    1.8990 O   0  0  0  0  0  0  0  0  0  0  0  0
    4.8010   -3.6960   -0.2370 N   0  0  0  0  0  0  0  0  0  0  0  0
    5.1230   -3.3700    0.6630 H   0  0  0  0  0  0  0  0  0  0  0  0
    5.4470   -4.1390   -0.8740 H   0  0  0  0  0  0  0  0  0  0  0  0
    3.0800   -3.9080   -1.6720 O   0  0  0  0  0  0  0  0  0  0  0  0
    6.0090    0.4780   -0.8690 N   0  0  0  0  0  0  0  0  0  0  0  0
    6.9460    0.0910    1.2940 C   0  0  0  0  0  0  0  0  0  0  0  0
    6.8710   -0.2850    2.3030 H   0  0  0  0  0  0  0  0  0  0  0  0
    7.1490    1.0590   -1.2940 C   0  0  0  0  0  0  0  0  0  0  0  0
    8.1480    0.6900    0.8860 C   0  0  0  0  0  0  0  0  0  0  0  0
    8.9750    0.7680    1.5780 H   0  0  0  0  0  0  0  0  0  0  0  0
    8.2540    1.1810   -0.4250 C   0  0  0  0  0  0  0  0  0  0  0  0
    7.2410    1.5410   -2.6120 C   0  0  0  0  0  0  0  0  0  0  0  0
    6.4020    1.4480   -3.2860 H   0  0  0  0  0  0  0  0  0  0  0  0
    9.4440    1.7820   -0.8740 C   0  0  0  0  0  0  0  0  0  0  0  0
   10.2960    1.8760   -0.2150 H   0  0  0  0  0  0  0  0  0  0  0  0
    8.4300    2.1460   -3.0590 C   0  0  0  0  0  0  0  0  0  0  0  0
    8.4990    2.5160   -4.0710 H   0  0  0  0  0  0  0  0  0  0  0  0
    9.5300    2.2660   -2.1910 C   0  0  0  0  0  0  0  0  0  0  0  0
   10.4420    2.7290   -2.5380 H   0  0  0  0  0  0  0  0  0  0  0  0
   -2.2390    2.7990   -0.3540 H   0  0  0  0  0  0  0  0  0  0  0  0
   -3.5560    3.4950   -2.4570 H   0  0  0  0  0  0  0  0  0  0  0  0
   -5.6810    3.7010   -1.3980 H   0  0  0  0  0  0  0  0  0  0  0  0
    1.8310   -1.3100   -0.8300 H   0  0  0  0  0  0  0  0  0  0  0  0
   -2.3760   -0.7260    1.2540 H   0  0  0  0  0  0  0  0  0  0  0  0
   -0.2240   -2.0370   -0.4320 H   0  0  0  0  0  0  0  0  0  0  0  0
  1  3  1  0  0  0  0
  1  6  1  0  0  0  0
  1  2  1  0  0  0  0
  2 94  1  0  0  0  0
  2  9  1  0  0  0  0
  2 12  1  0  0  0  0
  3  4  1  0  0  0  0
  3  5  1  0  0  0  0
  3 13  1  0  0  0  0
  6  7  1  0  0  0  0
  6  8  1  0  0  0  0
  6 14  1  0  0  0  0
  9 10  1  0  0  0  0
  9 11  1  0  0  0  0
  9 15  1  0  0  0  0
 12 16  1  0  0  0  0
 12 18  2  0  0  0  0
 13 95  1  0  0  0  0
 13 19  1  0  0  0  0
 13 15  1  0  0  0  0
 14 98  1  0  0  0  0
 14 22  1  0  0  0  0
 14 23  1  0  0  0  0
 15 96  1  0  0  0  0
 15 25  1  0  0  0  0
 16 17  1  0  0  0  0
 16 28  1  0  0  0  0
 19 20  1  0  0  0  0
 19 21  1  0  0  0  0
 19 29  1  0  0  0  0
 22 99  1  0  0  0  0
 22 32  1  0  0  0  0
 22 35  1  0  0  0  0
 23 24  1  0  0  0  0
 25 27  1  0  0  0  0
 25 26  1  0  0  0  0
 25 37  1  0  0  0  0
 28 40  1  0  0  0  0
 28 44  1  0  0  0  0
 28 48  1  0  0  0  0
 29 31  1  0  0  0  0
 29 30  1  0  0  0  0
 29 37  1  0  0  0  0
 32 33  1  0  0  0  0
 32 34  1  0  0  0  0
 32 52  1  0  0  0  0
 35 36  1  0  0  0  0
 35 53  1  0  0  0  0
 37 39  1  0  0  0  0
 37 38  1  0  0  0  0
 40 42  1  0  0  0  0
 40 43  1  0  0  0  0
 40 41  1  0  0  0  0
 44 46  1  0  0  0  0
 44 47  1  0  0  0  0
 44 45  1  0  0  0  0
 48 50  1  0  0  0  0
 48 51  1  0  0  0  0
 48 49  1  0  0  0  0
 52 54  2  0  0  0  0
 52 56  1  0  0  0  0
 53 58  1  0  0  0  0
 53 59  2  0  0  0  0
 54 55  1  0  0  0  0
 54 60  1  0  0  0  0
 56 57  1  0  0  0  0
 56 62  2  0  0  0  0
 58 97  1  0  0  0  0
 58 66  1  0  0  0  0
 58 64  1  0  0  0  0
 60 61  1  0  0  0  0
 60 69  2  0  0  0  0
 62 63  1  0  0  0  0
 62 69  1  0  0  0  0
 64 65  1  0  0  0  0
 64 71  1  0  0  0  0
 66 67  1  0  0  0  0
 66 68  1  0  0  0  0
 66 72  1  0  0  0  0
 69 70  1  0  0  0  0
 71 73  1  0  0  0  0
 71 74  2  0  0  0  0
 72 75  1  0  0  0  0
 72 78  2  0  0  0  0
 73 80  1  0  0  0  0
 73 79  2  0  0  0  0
 75 77  1  0  0  0  0
 75 76  1  0  0  0  0
 79 82  1  0  0  0  0
 80 81  1  0  0  0  0
 80 83  2  0  0  0  0
 82 86  2  0  0  0  0
 82 85  1  0  0  0  0
 83 84  1  0  0  0  0
 83 85  1  0  0  0  0
 85 88  2  0  0  0  0
 86 87  1  0  0  0  0
 86 90  1  0  0  0  0
 88 89  1  0  0  0  0
 88 92  1  0  0  0  0
 90 91  1  0  0  0  0
 90 92  2  0  0  0  0
 92 93  1  0  0  0  0
M  END
>  <name>
saquinavir

>  <activity>
-6.26

>  <logD>
3

>  <rgyr>
5.57686

>  <HCPSA>
130.93

>  <fROTB>
0.203883

$$$$
lidocaine
  MOE2002           3D

 39 39  0  0  0  0  0  0  0  0  1 V2000
   -2.0390   -0.0490    0.2180 C   0  0  0  0  0  0  0  0  0  0  0  0
   -0.6590   -0.2110    0.3200 N   0  0  0  0  0  0  0  0  0  0  0  0
   -0.1480    0.5430    0.7560 H   0  0  0  0  0  0  0  0  0  0  0  0
   -2.5580    1.2670    0.2140 C   0  0  0  0  0  0  0  0  0  0  0  0
   -2.9360   -1.1500    0.1710 C   0  0  0  0  0  0  0  0  0  0  0  0
    0.1550   -1.1990   -0.2360 C   0  0  0  0  0  0  0  0  0  0  0  0
   -3.9380    1.4800    0.0320 C   0  0  0  0  0  0  0  0  0  0  0  0
   -4.3370    2.4830   -0.0060 H   0  0  0  0  0  0  0  0  0  0  0  0
   -1.6350    2.4700    0.2840 C   0  0  0  0  0  0  0  0  0  0  0  0
   -1.0270    2.5150   -0.6200 H   0  0  0  0  0  0  0  0  0  0  0  0
   -2.2110    3.3920    0.3600 H   0  0  0  0  0  0  0  0  0  0  0  0
   -0.9870    2.3970    1.1590 H   0  0  0  0  0  0  0  0  0  0  0  0
   -4.3080   -0.9180   -0.0390 C   0  0  0  0  0  0  0  0  0  0  0  0
   -4.9930   -1.7510   -0.1030 H   0  0  0  0  0  0  0  0  0  0  0  0
   -2.5230   -2.5650    0.5490 C   0  0  0  0  0  0  0  0  0  0  0  0
   -2.3500   -3.1520   -0.3530 H   0  0  0  0  0  0  0  0  0  0  0  0
   -1.6340   -2.5720    1.1790 H   0  0  0  0  0  0  0  0  0  0  0  0
   -3.3270   -3.0380    1.1140 H   0  0  0  0  0  0  0  0  0  0  0  0
    1.5910   -1.3680    0.2550 C   0  0  0  0  0  0  0  0  0  0  0  0
    1.5020   -1.6890    1.2940 H   0  0  0  0  0  0  0  0  0  0  0  0
    2.0900   -2.1640   -0.3020 H   0  0  0  0  0  0  0  0  0  0  0  0
   -0.2700   -1.9430   -1.1200 O   0  0  0  0  0  0  0  0  0  0  0  0
   -4.8070    0.3900   -0.1170 C   0  0  0  0  0  0  0  0  0  0  0  0
   -5.8630    0.5580   -0.2680 H   0  0  0  0  0  0  0  0  0  0  0  0
    2.4010   -0.1170    0.2030 N   0  0  0  0  0  0  0  0  0  0  0  0
    3.6700   -0.3980    0.9290 C   0  0  0  0  0  0  0  0  0  0  0  0
    4.2360   -1.1840    0.4280 H   0  0  0  0  0  0  0  0  0  0  0  0
    3.4310   -0.7320    1.9400 H   0  0  0  0  0  0  0  0  0  0  0  0
    2.7250    0.2600   -1.2050 C   0  0  0  0  0  0  0  0  0  0  0  0
    3.1860   -0.5750   -1.7350 H   0  0  0  0  0  0  0  0  0  0  0  0
    3.4260    1.0930   -1.2030 H   0  0  0  0  0  0  0  0  0  0  0  0
    4.5490    0.8520    1.0880 C   0  0  0  0  0  0  0  0  0  0  0  0
    5.0600    1.1060    0.1600 H   0  0  0  0  0  0  0  0  0  0  0  0
    3.9430    1.6950    1.4220 H   0  0  0  0  0  0  0  0  0  0  0  0
    5.3130    0.6500    1.8390 H   0  0  0  0  0  0  0  0  0  0  0  0
    1.5260    0.7980   -1.9960 C   0  0  0  0  0  0  0  0  0  0  0  0
    0.9500    1.4900   -1.3820 H   0  0  0  0  0  0  0  0  0  0  0  0
    1.9020    1.3420   -2.8620 H   0  0  0  0  0  0  0  0  0  0  0  0
    0.8950   -0.0060   -2.3680 H   0  0  0  0  0  0  0  0  0  0  0  0
  1  4  2  0  0  0  0
  1  5  1  0  0  0  0
  1  2  1  0  0  0  0
  2  3  1  0  0  0  0
  2  6  1  0  0  0  0
  4  9  1  0  0  0  0
  4  7  1  0  0  0  0
  5 15  1  0  0  0  0
  5 13  2  0  0  0  0
  6 19  1  0  0  0  0
  6 22  2  0  0  0  0
  7  8  1  0  0  0  0
  7 23  2  0  0  0  0
  9 11  1  0  0  0  0
  9 12  1  0  0  0  0
  9 10  1  0  0  0  0
 13 14  1  0  0  0  0
 13 23  1  0  0  0  0
 15 17  1  0  0  0  0
 15 18  1  0  0  0  0
 15 16  1  0  0  0  0
 19 20  1  0  0  0  0
 19 21  1  0  0  0  0
 19 25  1  0  0  0  0
 23 24  1  0  0  0  0
 25 26  1  0  0  0  0
 25 29  1  0  0  0  0
 26 27  1  0  0  0  0
 26 28  1  0  0  0  0
 26 32  1  0  0  0  0
 29 30  1  0  0  0  0
 29 31  1  0  0  0  0
 29 36  1  0  0  0  0
 32 34  1  0  0  0  0
 32 35  1  0  0  0  0
 32 33  1  0  0  0  0
 36 38  1  0  0  0  0
 36 39  1  0  0  0  0
 36 37  1  0  0  0  0
M  END
>  <name>
lidocaine

>  <activity>
-4.21

>  <logD>
1.63

>  <rgyr>
3.23241

>  <HCPSA>
24.46

>  <fROTB>
0.25641

$$$$
Enalapril
  MOE2002           3D

 55 56  0  0  1  0  0  0  0  0  1 V2000
   -3.3030    1.0290   -0.3930 N   0  0  0  0  0  0  0  0  0  0  0  0
   -4.3080    1.8490    0.2790 C   0  0  1  0  0  0  0  0  0  0  0  0
   -2.2750    0.4310    0.2450 C   0  0  0  0  0  0  0  0  0  0  0  0
   -3.5660    0.9990   -1.8260 C   0  0  0  0  0  0  0  0  0  0  0  0
   -3.9960    0.0310   -2.0940 H   0  0  0  0  0  0  0  0  0  0  0  0
   -2.6800    1.2000   -2.4290 H   0  0  0  0  0  0  0  0  0  0  0  0
   -5.3600    2.1870   -0.7810 C   0  0  0  0  0  0  0  0  0  0  0  0
   -5.8050    3.1700   -0.6210 H   0  0  0  0  0  0  0  0  0  0  0  0
   -6.1380    1.4220   -0.7960 H   0  0  0  0  0  0  0  0  0  0  0  0
   -4.9590    1.1460    1.4730 C   0  0  0  0  0  0  0  0  0  0  0  0
   -1.3150   -0.4710   -0.5500 C   0  0  1  0  0  0  0  0  0  0  0  0
   -2.0930    0.5740    1.4550 O   0  0  0  0  0  0  0  0  0  0  0  0
   -4.5790    2.1120   -2.0880 C   0  0  0  0  0  0  0  0  0  0  0  0
   -5.2200    1.8960   -2.9430 H   0  0  0  0  0  0  0  0  0  0  0  0
   -4.0490    3.0530   -2.2450 H   0  0  0  0  0  0  0  0  0  0  0  0
   -5.3310    1.8770    2.5630 O   0  0  0  0  0  0  0  0  0  0  0  0
   -5.7410    1.3480    3.2520 H   0  0  0  0  0  0  0  0  0  0  0  0
   -5.1540   -0.0680    1.4580 O   0  0  0  0  0  0  0  0  0  0  0  0
    0.0420   -0.3260    0.0370 N   0  0  0  0  0  0  0  0  0  0  0  0
    0.0630   -0.6880    0.8840 H   0  0  0  0  0  0  0  0  0  0  0  0
   -1.8280   -1.9180   -0.5150 C   0  0  0  0  0  0  0  0  0  0  0  0
   -1.3650   -2.5150   -1.2990 H   0  0  0  0  0  0  0  0  0  0  0  0
   -1.6370   -2.3660    0.4610 H   0  0  0  0  0  0  0  0  0  0  0  0
   -2.9030   -1.9250   -0.6970 H   0  0  0  0  0  0  0  0  0  0  0  0
    1.1300   -0.9050   -0.7880 C   0  0  1  0  0  0  0  0  0  0  0  0
    2.4760   -0.3670   -0.2820 C   0  0  0  0  0  0  0  0  0  0  0  0
    3.2780   -0.8380   -0.8530 H   0  0  0  0  0  0  0  0  0  0  0  0
    2.6050   -0.6210    0.7720 H   0  0  0  0  0  0  0  0  0  0  0  0
    1.1460   -2.4300   -0.7280 C   0  0  0  0  0  0  0  0  0  0  0  0
    2.5910    1.1520   -0.4550 C   0  0  0  0  0  0  0  0  0  0  0  0
    2.4260    1.4000   -1.5050 H   0  0  0  0  0  0  0  0  0  0  0  0
    1.8160    1.6470    0.1310 H   0  0  0  0  0  0  0  0  0  0  0  0
    1.1630   -3.0350    0.4430 O   0  0  0  0  0  0  0  0  0  0  0  0
    1.1620   -3.0840   -1.7710 O   0  0  0  0  0  0  0  0  0  0  0  0
    3.9340    1.7040   -0.0220 C   0  0  0  0  0  0  0  0  0  0  0  0
    1.1620   -4.4460    0.5590 C   0  0  0  0  0  0  0  0  0  0  0  0
    2.0330   -4.8640    0.0510 H   0  0  0  0  0  0  0  0  0  0  0  0
    0.2510   -4.8560    0.1210 H   0  0  0  0  0  0  0  0  0  0  0  0
    4.9590    1.9030   -0.9670 C   0  0  0  0  0  0  0  0  0  0  0  0
    4.7870    1.6880   -2.0110 H   0  0  0  0  0  0  0  0  0  0  0  0
    4.1750    1.9740    1.3380 C   0  0  0  0  0  0  0  0  0  0  0  0
    3.3940    1.8180    2.0680 H   0  0  0  0  0  0  0  0  0  0  0  0
    1.2220   -4.8260    2.0380 C   0  0  0  0  0  0  0  0  0  0  0  0
    1.2100   -5.9120    2.1380 H   0  0  0  0  0  0  0  0  0  0  0  0
    2.1390   -4.4350    2.4800 H   0  0  0  0  0  0  0  0  0  0  0  0
    0.3620   -4.4070    2.5600 H   0  0  0  0  0  0  0  0  0  0  0  0
    6.2160    2.3780   -0.5530 C   0  0  0  0  0  0  0  0  0  0  0  0
    7.0000    2.5330   -1.2810 H   0  0  0  0  0  0  0  0  0  0  0  0
    5.4350    2.4420    1.7510 C   0  0  0  0  0  0  0  0  0  0  0  0
    5.6190    2.6450    2.7970 H   0  0  0  0  0  0  0  0  0  0  0  0
    6.4550    2.6430    0.8060 C   0  0  0  0  0  0  0  0  0  0  0  0
    7.4240    2.9990    1.1260 H   0  0  0  0  0  0  0  0  0  0  0  0
    1.0170   -0.5770   -1.8220 H   0  0  0  0  0  0  0  0  0  0  0  0
   -3.8270    2.7700    0.6110 H   0  0  0  0  0  0  0  0  0  0  0  0
   -1.2660   -0.1400   -1.5840 H   0  0  0  0  0  0  0  0  0  0  0  0
  1  4  1  0  0  0  0
  1  2  1  0  0  0  0
  1  3  1  0  0  0  0
  2 54  1  0  0  0  0
  2  7  1  0  0  0  0
  2 10  1  0  0  0  0
  3 11  1  0  0  0  0
  3 12  2  0  0  0  0
  4  5  1  0  0  0  0
  4  6  1  0  0  0  0
  4 13  1  0  0  0  0
  7  8  1  0  0  0  0
  7  9  1  0  0  0  0
  7 13  1  0  0  0  0
 10 16  1  0  0  0  0
 10 18  2  0  0  0  0
 11 55  1  0  0  0  0
 11 21  1  0  0  0  0
 11 19  1  0  0  0  0
 13 15  1  0  0  0  0
 13 14  1  0  0  0  0
 16 17  1  0  0  0  0
 19 20  1  0  0  0  0
 19 25  1  0  0  0  0
 21 23  1  0  0  0  0
 21 24  1  0  0  0  0
 21 22  1  0  0  0  0
 25 53  1  0  0  0  0
 25 26  1  0  0  0  0
 25 29  1  0  0  0  0
 26 27  1  0  0  0  0
 26 28  1  0  0  0  0
 26 30  1  0  0  0  0
 29 34  2  0  0  0  0
 29 33  1  0  0  0  0
 30 31  1  0  0  0  0
 30 32  1  0  0  0  0
 30 35  1  0  0  0  0
 33 36  1  0  0  0  0
 35 39  2  0  0  0  0
 35 41  1  0  0  0  0
 36 37  1  0  0  0  0
 36 38  1  0  0  0  0
 36 43  1  0  0  0  0
 39 40  1  0  0  0  0
 39 47  1  0  0  0  0
 41 42  1  0  0  0  0
 41 49  2  0  0  0  0
 43 45  1  0  0  0  0
 43 46  1  0  0  0  0
 43 44  1  0  0  0  0
 47 48  1  0  0  0  0
 47 51  2  0  0  0  0
 49 50  1  0  0  0  0
 49 51  1  0  0  0  0
 51 52  1  0  0  0  0
M  END
>  <name>
enalapril

>  <activity>
-5.64

>  <logD>
-0.9

>  <rgyr>
4.47575

>  <HCPSA>
91.59

>  <fROTB>
0.25

$$$$
theophylline
  MOE2002           3D

 21 22  0  0  0  0  0  0  0  0  1 V2000
    1.0620    1.0990   -0.0020 C   0  0  0  0  0  0  0  0  0  0  0  0
    1.0540   -0.3130    0.0000 C   0  0  0  0  0  0  0  0  0  0  0  0
   -0.1940    1.7690   -0.0020 C   0  0  0  0  0  0  0  0  0  0  0  0
    2.3740    1.5490   -0.0040 N   0  0  0  0  0  0  0  0  0  0  0  0
   -0.0670   -1.0820    0.0040 N   0  0  0  0  0  0  0  0  0  0  0  0
    2.4010   -0.6330   -0.0020 N   0  0  0  0  0  0  0  0  0  0  0  0
    2.7910   -1.5650   -0.0010 H   0  0  0  0  0  0  0  0  0  0  0  0
   -1.3460    0.9660   -0.0030 N   0  0  0  0  0  0  0  0  0  0  0  0
   -0.3330    2.9920    0.0010 O   0  0  0  0  0  0  0  0  0  0  0  0
    3.1640    0.4750   -0.0030 C   0  0  0  0  0  0  0  0  0  0  0  0
    4.2440    0.4900   -0.0050 H   0  0  0  0  0  0  0  0  0  0  0  0
   -1.2810   -0.4410   -0.0030 C   0  0  0  0  0  0  0  0  0  0  0  0
    0.0190   -2.5530    0.0040 C   0  0  0  0  0  0  0  0  0  0  0  0
   -0.5950   -2.9600    0.8080 H   0  0  0  0  0  0  0  0  0  0  0  0
   -0.3430   -2.9370   -0.9500 H   0  0  0  0  0  0  0  0  0  0  0  0
    1.0440   -2.8920    0.1500 H   0  0  0  0  0  0  0  0  0  0  0  0
   -2.6700    1.6480    0.0040 C   0  0  0  0  0  0  0  0  0  0  0  0
   -3.5100    0.9550   -0.0100 H   0  0  0  0  0  0  0  0  0  0  0  0
   -2.7520    2.2640    0.9000 H   0  0  0  0  0  0  0  0  0  0  0  0
   -2.7520    2.2890   -0.8750 H   0  0  0  0  0  0  0  0  0  0  0  0
   -2.3090   -1.1180   -0.0120 O   0  0  0  0  0  0  0  0  0  0  0  0
  1  2  2  0  0  0  0
  1  3  1  0  0  0  0
  1  4  1  0  0  0  0
  2  6  1  0  0  0  0
  2  5  1  0  0  0  0
  3  8  1  0  0  0  0
  3  9  2  0  0  0  0
  4 10  2  0  0  0  0
  5 13  1  0  0  0  0
  5 12  1  0  0  0  0
  6  7  1  0  0  0  0
  6 10  1  0  0  0  0
  8 17  1  0  0  0  0
  8 12  1  0  0  0  0
 10 11  1  0  0  0  0
 12 21  2  0  0  0  0
 13 15  1  0  0  0  0
 13 16  1  0  0  0  0
 13 14  1  0  0  0  0
 17 19  1  0  0  0  0
 17 20  1  0  0  0  0
 17 18  1  0  0  0  0
M  END
>  <name>
theophylline

>  <activity>
-4.35

>  <logD>
-0.02

>  <rgyr>
2.36196

>  <HCPSA>
61.59

>  <fROTB>
0.0909091

$$$$
