
  CDK     0331111707

 19 20  0  0  0  0  0  0  0  0999 V2000
    0.7145    2.0625    0.0000 C   0  0  0  0  0  4  0  0  0  0  0  0
    0.7145    1.2375    0.0000 N   0  0  0  0  0  4  0  0  0  0  0  0
    0.0000    0.8250    0.0000 C   0  0  0  0  0  4  0  0  0  0  0  0
    1.4289    0.8250    0.0000 C   0  0  0  0  0  4  0  0  0  0  0  0
    1.4289    0.0000    0.0000 C   0  0  0  0  0  4  0  0  0  0  0  0
    2.1434   -0.4125    0.0000 C   0  0  0  0  0  4  0  0  0  0  0  0
    2.1434   -1.2375    0.0000 C   0  0  0  0  0  4  0  0  0  0  0  0
    2.8579   -1.6500    0.0000 C   0  0  0  0  0  4  0  0  0  0  0  0
    2.8579   -2.4750    0.0000 C   0  0  0  0  0  4  0  0  0  0  0  0
    2.1434   -2.8875    0.0000 C   0  0  0  0  0  4  0  0  0  0  0  0
    1.4289   -2.4750    0.0000 C   0  0  0  0  0  4  0  0  0  0  0  0
    1.4289   -1.6500    0.0000 C   0  0  0  0  0  4  0  0  0  0  0  0
    2.1434   -3.7125    0.0000 Br  0  0  0  0  0  1  0  0  0  0  0  0
    2.8579   -0.0000    0.0000 C   0  0  0  0  0  4  0  0  0  0  0  0
    2.8579    0.8250    0.0000 C   0  0  0  0  0  4  0  0  0  0  0  0
    3.5724    1.2375    0.0000 C   0  0  0  0  0  4  0  0  0  0  0  0
    4.2868    0.8250    0.0000 C   0  0  0  0  0  4  0  0  0  0  0  0
    4.2868   -0.0000    0.0000 N   0  0  0  0  0  4  0  0  0  0  0  0
    3.5724   -0.4125    0.0000 C   0  0  0  0  0  4  0  0  0  0  0  0
  1  2  1  0  0  0  0 
  2  3  1  0  0  0  0 
  2  4  1  0  0  0  0 
  5  4  1  4  0  0  0 
  5  6  2  0  0  0  0 
  6  7  1  0  0  0  0 
  7  8  2  0  0  0  0 
  8  9  1  0  0  0  0 
  9 10  2  0  0  0  0 
 10 11  1  0  0  0  0 
 11 12  2  0  0  0  0 
  7 12  1  0  0  0  0 
 10 13  1  0  0  0  0 
  6 14  1  0  0  0  0 
 14 15  2  0  0  0  0 
 15 16  1  0  0  0  0 
 16 17  2  0  0  0  0 
 17 18  1  0  0  0  0 
 18 19  2  0  0  0  0 
 14 19  1  0  0  0  0 
M  CHG  1   2   1
M  CHG  1  18   1
M  END
> <Mol Weight>
317.224

> <Formula>
C16H17BrN2

> <CdId>
549

> <RCDK_LipinskiFailures>
0

> <source>
FDA

> <name>
Zimelidine

> <ABUNDANCE>
59.84% at pH 4.8

> <BLABBER_CHARGE>
2

> <inchi>
1S/C16H17BrN2/c1-19(2)11-9-16(14-4-3-10-18-12-14)13-5-7-15(17)8-6-13/h3-10,12H,11H2,1-2H3/b16-9-

> <activity>
1

$$$$

  CDK     0331111707

 26 28  0  0  0  0  0  0  0  0999 V2000
    0.0000   -4.9500    0.0000 C   0  0  0  0  0  4  0  0  0  0  0  0
    0.0000   -4.1250    0.0000 C   0  0  0  0  0  4  0  0  0  0  0  0
    0.7145   -3.7125    0.0000 C   0  0  0  0  0  4  0  0  0  0  0  0
    0.7145   -2.8875    0.0000 C   0  0  0  0  0  4  0  0  0  0  0  0
    1.4289   -2.4750    0.0000 C   0  0  0  0  0  4  0  0  0  0  0  0
    1.4289   -1.6500    0.0000 C   0  0  0  0  0  4  0  0  0  0  0  0
    2.1434   -1.2375    0.0000 C   0  0  0  0  0  4  0  0  0  0  0  0
    2.1434   -0.4125    0.0000 O   0  0  0  0  0  2  0  0  0  0  0  0
    2.8579   -1.6500    0.0000 C   0  0  0  0  0  4  0  0  0  0  0  0
    2.8579   -0.8250    0.0000 O   0  0  0  0  0  2  0  0  0  0  0  0
    3.5724   -1.2375    0.0000 O   0  0  0  0  0  2  0  0  0  0  0  0
    4.2868   -1.6500    0.0000 C   0  0  0  0  0  4  0  0  0  0  0  0
    5.0013   -1.2375    0.0000 C   0  0  0  0  0  4  0  0  0  0  0  0
    5.0013   -0.4125    0.0000 N   0  0  0  0  0  4  0  0  0  0  0  0
    4.2868    0.0000    0.0000 C   0  0  0  0  0  4  0  0  0  0  0  0
    5.7158   -1.6500    0.0000 C   0  0  0  0  0  4  0  0  0  0  0  0
    6.4302   -1.2375    0.0000 O   0  0  0  0  0  2  0  0  0  0  0  0
    5.7158   -2.4750    0.0000 C   0  0  0  0  0  4  0  0  0  0  0  0
    6.4302   -2.8875    0.0000 N   0  0  0  0  0  4  0  0  0  0  0  0
    6.4302   -3.7125    0.0000 C   0  0  0  0  0  4  0  0  0  0  0  0
    5.0013   -2.8875    0.0000 C   0  0  0  0  0  4  0  0  0  0  0  0
    5.0013   -3.7125    0.0000 O   0  0  0  0  0  2  0  0  0  0  0  0
    4.2868   -2.4750    0.0000 C   0  0  0  0  0  4  0  0  0  0  0  0
    3.5724   -2.8875    0.0000 O   0  0  0  0  0  2  0  0  0  0  0  0
    2.8579   -2.4750    0.0000 C   0  0  0  0  0  4  0  0  0  0  0  0
    2.1434   -2.8875    0.0000 O   0  0  0  0  0  2  0  0  0  0  0  0
  1  2  1  0  0  0  0 
  2  3  1  0  0  0  0 
  3  4  1  0  0  0  0 
  4  5  1  0  0  0  0 
  5  6  1  0  0  0  0 
  6  7  1  0  0  0  0 
  7  8  2  0  0  0  0 
  7  9  1  0  0  0  0 
  9 10  1  0  0  0  0 
  9 11  1  0  0  0  0 
 11 12  1  0  0  0  0 
 12 13  1  0  0  0  0 
 13 14  1  0  0  0  0 
 14 15  1  0  0  0  0 
 13 16  1  0  0  0  0 
 16 17  1  0  0  0  0 
 16 18  1  0  0  0  0 
 18 19  1  0  0  0  0 
 19 20  1  0  0  0  0 
 18 21  1  0  0  0  0 
 21 22  1  0  0  0  0 
 21 23  1  0  0  0  0 
 12 23  1  0  0  0  0 
 23 24  1  0  0  0  0 
 24 25  1  0  0  0  0 
  9 25  1  0  0  0  0 
 25 26  1  0  0  0  0 
  5 26  1  0  0  0  0 
M  CHG  1  14   1
M  CHG  1  19   1
M  END
> <Mol Weight>
374.4293

> <Formula>
C17H30N2O7

> <CdId>
535

> <RCDK_LipinskiFailures>
0

> <source>
BYLER

> <name>
trospectomycin sulfate

> <ABUNDANCE>
94.04% at pH 4.8

> <BLABBER_CHARGE>
2

> <inchi>
1S/C17H30N2O7/c1-4-5-6-8-7-9(20)17(23)16(24-8)25-15-13(22)10(18-2)12(21)11(19-3)14(15)26-17/h8,10-16,18-19,21-23H,4-7H2,1-3H3

> <activity>
1

$$$$

  CDK     0331111707

 26 28  0  0  0  0  0  0  0  0999 V2000
    4.8639   -0.4918    0.0000 C   0  0  0  0  0  4  0  0  0  0  0  0
    4.1494   -0.9043    0.0000 C   0  0  0  0  0  4  0  0  0  0  0  0
    3.4350   -0.4918    0.0000 C   0  0  0  0  0  4  0  0  0  0  0  0
    2.7205   -0.9043    0.0000 C   0  0  0  0  0  4  0  0  0  0  0  0
    2.0060   -0.4918    0.0000 C   0  0  0  0  0  4  0  0  0  0  0  0
    2.0060    0.3332    0.0000 C   0  0  0  0  0  4  0  0  0  0  0  0
    1.2915    0.7457    0.0000 C   0  0  0  0  0  4  0  0  0  0  0  0
    1.2915    1.5707    0.0000 O   0  0  0  0  0  2  0  0  0  0  0  0
    0.5771    0.3332    0.0000 C   0  0  0  0  0  4  0  0  0  0  0  0
    0.5771   -0.4918    0.0000 C   0  0  0  0  0  4  0  0  0  0  0  0
    1.2915   -0.9043    0.0000 O   0  0  0  0  0  2  0  0  0  0  0  0
   -0.1374   -0.9043    0.0000 O   0  0  0  0  0  2  0  0  0  0  0  0
   -0.8519   -0.4918    0.0000 C   0  0  0  0  0  4  0  0  0  0  0  0
   -1.5663   -0.9043    0.0000 C   0  0  0  0  0  4  0  0  0  0  0  0
   -2.2808   -0.4918    0.0000 C   0  0  0  0  0  4  0  0  0  0  0  0
   -2.2808    0.3332    0.0000 C   0  0  0  0  0  4  0  0  0  0  0  0
   -1.5663    0.7457    0.0000 C   0  0  0  0  0  4  0  0  0  0  0  0
   -0.8519    0.3332    0.0000 C   0  0  0  0  0  4  0  0  0  0  0  0
   -0.1374    0.7457    0.0000 O   0  0  0  0  0  2  0  0  0  0  0  0
   -1.5663    1.5707    0.0000 N   0  0  0  0  0  4  0  0  0  0  0  0
   -2.2808    1.9832    0.0000 C   0  0  0  0  0  4  0  0  0  0  0  0
   -2.9953    0.7457    0.0000 O   0  0  0  0  0  2  0  0  0  0  0  0
   -2.9953   -0.9043    0.0000 N   0  0  0  0  0  4  0  0  0  0  0  0
   -3.7098   -0.4918    0.0000 C   0  0  0  0  0  4  0  0  0  0  0  0
   -1.5663   -1.7293    0.0000 O   0  0  0  0  0  2  0  0  0  0  0  0
    0.5771    1.1582    0.0000 O   0  0  0  0  0  2  0  0  0  0  0  0
  1  2  1  0  0  0  0 
  2  3  1  0  0  0  0 
  3  4  1  0  0  0  0 
  4  5  1  0  0  0  0 
  5  6  1  0  0  0  0 
  6  7  1  0  0  0  0 
  7  8  2  0  0  0  0 
  7  9  1  0  0  0  0 
  9 10  1  0  0  0  0 
 10 11  1  0  0  0  0 
  5 11  1  0  0  0  0 
 10 12  1  0  0  0  0 
 12 13  1  0  0  0  0 
 13 14  1  0  0  0  0 
 14 15  1  0  0  0  0 
 15 16  1  0  0  0  0 
 16 17  1  0  0  0  0 
 17 18  1  0  0  0  0 
 13 18  1  0  0  0  0 
 18 19  1  0  0  0  0 
  9 19  1  0  0  0  0 
 17 20  1  0  0  0  0 
 20 21  1  0  0  0  0 
 16 22  1  0  0  0  0 
 15 23  1  0  0  0  0 
 23 24  1  0  0  0  0 
 14 25  1  0  0  0  0 
  9 26  1  0  0  0  0 
M  CHG  1  20   1
M  CHG  1  23   1
M  END
> <Mol Weight>
374.4293

> <Formula>
C17H30N2O7

> <CdId>
534

> <RCDK_LipinskiFailures>
0

> <source>
LOWE

> <name>
Trospectomycin

> <ABUNDANCE>
94.04% at pH 4.8

> <BLABBER_CHARGE>
2

> <inchi>
1S/C17H30N2O7.H2O4S/c1-4-5-6-8-7-9(20)17(23)16(24-8)25-15-13(22)10(18-2)12(21)11(19-3)14(15)26-17;1-5(2,3)4/h8,10-16,18-19,21-23H,4-7H2,1-3H3;(H2,1,2,3,4)/p-2

> <activity>
1

$$$$

  CDK     0331111707

 19 20  0  0  0  0  0  0  0  0999 V2000
    2.1434   -2.0625    0.0000 C   0  0  0  0  0  4  0  0  0  0  0  0
    2.8579   -1.6500    0.0000 N   0  0  0  0  0  4  0  0  0  0  0  0
    2.8579   -0.8250    0.0000 C   0  0  0  0  0  4  0  0  0  0  0  0
    3.5724   -2.0625    0.0000 C   0  0  0  0  0  4  0  0  0  0  0  0
    4.2868   -1.6500    0.0000 C   0  0  0  0  0  4  0  0  0  0  0  0
    5.0013   -2.0625    0.0000 N   0  0  0  0  0  3  0  0  0  0  0  0
    5.7158   -1.6500    0.0000 C   0  0  0  0  0  4  0  0  0  0  0  0
    6.4302   -2.0625    0.0000 C   0  0  0  0  0  4  0  0  0  0  0  0
    7.1447   -1.6500    0.0000 C   0  0  0  0  0  4  0  0  0  0  0  0
    7.8592   -2.0625    0.0000 C   0  0  0  0  0  4  0  0  0  0  0  0
    7.8592   -2.8875    0.0000 C   0  0  0  0  0  4  0  0  0  0  0  0
    7.1447   -3.3000    0.0000 C   0  0  0  0  0  4  0  0  0  0  0  0
    6.4302   -2.8875    0.0000 C   0  0  0  0  0  4  0  0  0  0  0  0
    5.0013   -2.8875    0.0000 C   0  0  0  0  0  4  0  0  0  0  0  0
    5.7158   -3.3000    0.0000 C   0  0  0  0  0  4  0  0  0  0  0  0
    5.7158   -4.1250    0.0000 C   0  0  0  0  0  4  0  0  0  0  0  0
    5.0013   -4.5375    0.0000 C   0  0  0  0  0  4  0  0  0  0  0  0
    4.2868   -4.1250    0.0000 C   0  0  0  0  0  4  0  0  0  0  0  0
    4.2868   -3.3000    0.0000 N   0  0  0  0  0  4  0  0  0  0  0  0
  1  2  1  0  0  0  0 
  2  3  1  0  0  0  0 
  2  4  1  0  0  0  0 
  4  5  1  0  0  0  0 
  5  6  1  0  0  0  0 
  6  7  1  0  0  0  0 
  7  8  1  0  0  0  0 
  8  9  2  0  0  0  0 
  9 10  1  0  0  0  0 
 10 11  2  0  0  0  0 
 11 12  1  0  0  0  0 
 12 13  2  0  0  0  0 
  8 13  1  0  0  0  0 
  6 14  1  0  0  0  0 
 14 15  2  0  0  0  0 
 15 16  1  0  0  0  0 
 16 17  2  0  0  0  0 
 17 18  1  0  0  0  0 
 18 19  2  0  0  0  0 
 14 19  1  0  0  0  0 
M  CHG  1   2   1
M  CHG  1  19   1
M  END
> <Mol Weight>
255.358

> <Formula>
C16H21N3

> <CdId>
531

> <RCDK_LipinskiFailures>
0

> <source>
FDA

> <name>
Tripelennamine

> <ABUNDANCE>
76.77% at pH 4.8

> <BLABBER_CHARGE>
2

> <inchi>
1S/C16H21N3/c1-18(2)12-13-19(16-10-6-7-11-17-16)14-15-8-4-3-5-9-15/h3-11H,12-14H2,1-2H3

> <activity>
1

$$$$

  CDK     0331111707

 31 33  0  0  0  0  0  0  0  0999 V2000
   -4.6480   -1.9520    0.0000 C   0  0  0  0  0  4  0  0  0  0  0  0
   -3.8230   -1.9520    0.0000 C   0  0  0  0  0  4  0  0  0  0  0  0
   -3.4105   -2.6664    0.0000 N   0  0  0  0  0  4  0  0  0  0  0  0
   -3.8230   -3.3809    0.0000 C   0  0  0  0  0  4  0  0  0  0  0  0
   -4.6480   -3.3809    0.0000 C   0  0  0  0  0  4  0  0  0  0  0  0
   -2.5855   -2.6664    0.0000 C   0  0  0  0  0  4  0  0  0  0  0  0
   -2.1730   -3.3809    0.0000 C   0  0  0  0  0  4  0  0  0  0  0  0
   -1.3480   -3.3809    0.0000 O   0  0  0  0  0  2  0  0  0  0  0  0
   -0.9355   -4.0954    0.0000 C   0  0  0  0  0  4  0  0  0  0  0  0
   -0.1105   -4.0954    0.0000 C   0  0  0  0  0  4  0  0  0  0  0  0
    0.3020   -4.8099    0.0000 C   0  0  0  0  0  4  0  0  0  0  0  0
   -0.1105   -5.5243    0.0000 C   0  0  0  0  0  4  0  0  0  0  0  0
   -0.9355   -5.5243    0.0000 C   0  0  0  0  0  4  0  0  0  0  0  0
   -1.3480   -4.8099    0.0000 C   0  0  0  0  0  4  0  0  0  0  0  0
    0.3020   -6.2388    0.0000 C   0  0  0  0  0  4  0  0  0  0  0  0
   -0.4125   -6.6513    0.0000 O   0  0  0  0  0  2  0  0  0  0  0  0
    0.7145   -6.9533    0.0000 C   0  0  0  0  0  4  0  0  0  0  0  0
    0.3020   -7.6677    0.0000 C   0  0  0  0  0  4  0  0  0  0  0  0
    0.7145   -8.3822    0.0000 C   0  0  0  0  0  4  0  0  0  0  0  0
    0.3020   -9.0967    0.0000 C   0  0  0  0  0  4  0  0  0  0  0  0
   -0.5230   -9.0967    0.0000 C   0  0  0  0  0  4  0  0  0  0  0  0
   -0.9355   -8.3822    0.0000 C   0  0  0  0  0  4  0  0  0  0  0  0
   -0.5230   -7.6677    0.0000 C   0  0  0  0  0  4  0  0  0  0  0  0
   -0.9355   -9.8112    0.0000 Cl  0  0  0  0  0  1  0  0  0  0  0  0
    1.0164   -5.8263    0.0000 C   0  0  0  0  0  4  0  0  0  0  0  0
    1.0164   -5.0013    0.0000 C   0  0  0  0  0  4  0  0  0  0  0  0
    1.7309   -4.5888    0.0000 C   0  0  0  0  0  4  0  0  0  0  0  0
    2.4454   -5.0013    0.0000 C   0  0  0  0  0  4  0  0  0  0  0  0
    3.1599   -4.5888    0.0000 C   0  0  0  0  0  4  0  0  0  0  0  0
    2.4454   -5.8263    0.0000 C   0  0  0  0  0  4  0  0  0  0  0  0
    1.7309   -6.2388    0.0000 C   0  0  0  0  0  4  0  0  0  0  0  0
  1  2  1  0  0  0  0 
  2  3  1  0  0  0  0 
  3  4  1  0  0  0  0 
  4  5  1  0  0  0  0 
  3  6  1  0  0  0  0 
  6  7  1  0  0  0  0 
  7  8  1  0  0  0  0 
  8  9  1  0  0  0  0 
  9 10  2  0  0  0  0 
 10 11  1  0  0  0  0 
 11 12  2  0  0  0  0 
 12 13  1  0  0  0  0 
 13 14  2  0  0  0  0 
  9 14  1  0  0  0  0 
 12 15  1  0  0  0  0 
 15 16  1  0  0  0  0 
 15 17  1  0  0  0  0 
 17 18  1  0  0  0  0 
 18 19  2  0  0  0  0 
 19 20  1  0  0  0  0 
 20 21  2  0  0  0  0 
 21 22  1  0  0  0  0 
 22 23  2  0  0  0  0 
 18 23  1  0  0  0  0 
 21 24  1  0  0  0  0 
 15 25  1  0  0  0  0 
 25 26  2  0  0  0  0 
 26 27  1  0  0  0  0 
 27 28  2  0  0  0  0 
 28 29  1  0  0  0  0 
 28 30  1  0  0  0  0 
 30 31  2  0  0  0  0 
 25 31  1  0  0  0  0 
M  CHG  1   3   1
M  END
> <Mol Weight>
438.001

> <Formula>
C27H32ClNO2

> <CdId>
530

> <RCDK_LipinskiFailures>
0

> <source>
FDA

> <name>
Triparanol

> <ABUNDANCE>
99.99% at pH 4.8

> <BLABBER_CHARGE>
1

> <inchi>
1S/C27H32ClNO2/c1-4-29(5-2)18-19-31-26-16-12-24(13-17-26)27(30,23-10-6-21(3)7-11-23)20-22-8-14-25(28)15-9-22/h6-17,30H,4-5,18-20H2,1-3H3

> <activity>
1

$$$$

  CDK     0331111707

 22 24  0  0  0  0  0  0  0  0999 V2000
    1.5971   -3.9217    0.0000 C   0  0  0  0  0  4  0  0  0  0  0  0
    1.5971   -3.0967    0.0000 C   0  0  0  0  0  4  0  0  0  0  0  0
    0.8826   -2.6842    0.0000 C   0  0  0  0  0  4  0  0  0  0  0  0
    0.1681   -3.0967    0.0000 N   0  0  0  0  0  4  0  0  0  0  0  0
   -0.5463   -2.6842    0.0000 C   0  0  0  0  0  4  0  0  0  0  0  0
    0.1681   -3.9217    0.0000 C   0  0  0  0  0  4  0  0  0  0  0  0
    2.3116   -2.6842    0.0000 C   0  0  0  0  0  4  0  0  0  0  0  0
    3.0260   -3.0967    0.0000 N   0  0  0  0  0  3  0  0  0  0  0  0
    3.7077   -2.6319    0.0000 C   0  0  0  0  0  4  0  0  0  0  0  0
    3.5241   -1.8276    0.0000 C   0  0  0  0  0  4  0  0  0  0  0  0
    4.1289   -1.2665    0.0000 C   0  0  0  0  0  4  0  0  0  0  0  0
    4.9172   -1.5096    0.0000 C   0  0  0  0  0  4  0  0  0  0  0  0
    5.1008   -2.3139    0.0000 C   0  0  0  0  0  4  0  0  0  0  0  0
    4.4960   -2.8751    0.0000 C   0  0  0  0  0  4  0  0  0  0  0  0
    4.7974   -3.6431    0.0000 C   0  0  0  0  0  4  0  0  0  0  0  0
    4.3849   -4.3575    0.0000 C   0  0  0  0  0  4  0  0  0  0  0  0
    3.5691   -4.4805    0.0000 C   0  0  0  0  0  4  0  0  0  0  0  0
    3.3856   -5.2848    0.0000 C   0  0  0  0  0  4  0  0  0  0  0  0
    2.5972   -5.5280    0.0000 C   0  0  0  0  0  4  0  0  0  0  0  0
    1.9925   -4.9668    0.0000 C   0  0  0  0  0  4  0  0  0  0  0  0
    2.1760   -4.1625    0.0000 C   0  0  0  0  0  4  0  0  0  0  0  0
    2.9644   -3.9193    0.0000 C   0  0  0  0  0  4  0  0  0  0  0  0
  1  2  1  0  0  0  0 
  2  3  1  0  0  0  0 
  3  4  1  0  0  0  0 
  4  5  1  0  0  0  0 
  4  6  1  0  0  0  0 
  2  7  1  0  0  0  0 
  7  8  1  0  0  0  0 
  8  9  1  0  0  0  0 
  9 10  2  0  0  0  0 
 10 11  1  0  0  0  0 
 11 12  2  0  0  0  0 
 12 13  1  0  0  0  0 
 13 14  2  0  0  0  0 
  9 14  1  0  0  0  0 
 14 15  1  0  0  0  0 
 15 16  1  0  0  0  0 
 16 17  1  0  0  0  0 
 17 18  2  0  0  0  0 
 18 19  1  0  0  0  0 
 19 20  2  0  0  0  0 
 20 21  1  0  0  0  0 
 21 22  2  0  0  0  0 
 17 22  1  0  0  0  0 
  8 22  1  0  0  0  0 
M  CHG  1   4   1
M  END
> <Mol Weight>
294.4338

> <Formula>
C20H26N2

> <CdId>
529

> <RCDK_LipinskiFailures>
0

> <source>
FDA

> <name>
Trimipramine

> <ABUNDANCE>
100% at pH 4.8

> <BLABBER_CHARGE>
1

> <inchi>
1S/C20H26N2/c1-16(14-21(2)3)15-22-19-10-6-4-8-17(19)12-13-18-9-5-7-11-20(18)22/h4-11,16H,12-15H2,1-3H3

> <activity>
1

$$$$

  CDK     0331111707

 21 22  0  0  0  0  0  0  0  0999 V2000
   -0.8846    2.9071    0.0000 C   0  0  0  0  0  4  0  0  0  0  0  0
   -0.1701    2.4946    0.0000 O   0  0  0  0  0  2  0  0  0  0  0  0
   -0.1701    1.6696    0.0000 C   0  0  0  0  0  4  0  0  0  0  0  0
    0.5444    1.2571    0.0000 C   0  0  0  0  0  4  0  0  0  0  0  0
    0.5444    0.4321    0.0000 C   0  0  0  0  0  4  0  0  0  0  0  0
    1.2588    0.0196    0.0000 C   0  0  0  0  0  4  0  0  0  0  0  0
    1.2588   -0.8054    0.0000 C   0  0  0  0  0  4  0  0  0  0  0  0
    1.9733   -1.2179    0.0000 C   0  0  0  0  0  4  0  0  0  0  0  0
    1.9733   -2.0429    0.0000 N   0  0  0  0  0  4  0  0  0  0  0  0
    1.2588   -2.4554    0.0000 C   0  0  0  0  0  4  0  0  0  0  0  0
    1.2588   -3.2804    0.0000 N   0  0  0  0  0  3  0  0  0  0  0  0
    0.5444   -2.0429    0.0000 N   0  0  0  0  0  3  0  0  0  0  0  0
    0.5444   -1.2179    0.0000 C   0  0  0  0  0  4  0  0  0  0  0  0
   -0.1701   -0.8054    0.0000 N   0  0  0  0  0  3  0  0  0  0  0  0
   -0.1701    0.0196    0.0000 C   0  0  0  0  0  4  0  0  0  0  0  0
   -0.8846    0.4321    0.0000 C   0  0  0  0  0  4  0  0  0  0  0  0
   -1.5991    0.0196    0.0000 O   0  0  0  0  0  2  0  0  0  0  0  0
   -2.3135    0.4321    0.0000 C   0  0  0  0  0  4  0  0  0  0  0  0
   -0.8846    1.2571    0.0000 C   0  0  0  0  0  4  0  0  0  0  0  0
   -1.5991    1.6696    0.0000 O   0  0  0  0  0  2  0  0  0  0  0  0
   -2.3135    1.2571    0.0000 C   0  0  0  0  0  4  0  0  0  0  0  0
  1  2  1  0  0  0  0 
  2  3  1  0  0  0  0 
  3  4  2  0  0  0  0 
  4  5  1  0  0  0  0 
  5  6  1  0  0  0  0 
  6  7  1  0  0  0  0 
  7  8  2  0  0  0  0 
  8  9  1  0  0  0  0 
  9 10  2  0  0  0  0 
 10 11  1  0  0  0  0 
 10 12  1  0  0  0  0 
 12 13  2  0  0  0  0 
  7 13  1  0  0  0  0 
 13 14  1  0  0  0  0 
  5 15  2  0  0  0  0 
 15 16  1  0  0  0  0 
 16 17  1  0  0  0  0 
 17 18  1  0  0  0  0 
 16 19  2  0  0  0  0 
  3 19  1  0  0  0  0 
 19 20  1  0  0  0  0 
 20 21  1  0  0  0  0 
M  CHG  1   9   1
M  END
> <Mol Weight>
290.3177

> <Formula>
C14H18N4O3

> <CdId>
527

> <RCDK_LipinskiFailures>
0

> <source>
BYLER

> <name>
trimethoprim sulfamethoxazole

> <ABUNDANCE>
99.46% at pH 4.8

> <BLABBER_CHARGE>
1

> <inchi>
1S/C14H18N4O3.C10H11N3O3S/c1-19-10-5-8(6-11(20-2)12(10)21-3)4-9-7-17-14(16)18-13(9)15;1-7-6-10(12-16-7)13-17(14,15)9-4-2-8(11)3-5-9/h5-7H,4H2,1-3H3,(H4,15,16,17,18);2-6H,11H2,1H3,(H,12,13)

> <activity>
1

$$$$

  CDK     0331111707

 21 23  0  0  0  0  0  0  0  0999 V2000
    4.2868    0.0000    0.0000 C   0  0  0  0  0  4  0  0  0  0  0  0
    4.2868    0.8250    0.0000 C   0  0  0  0  0  4  0  0  0  0  0  0
    3.5724    1.2375    0.0000 C   0  0  0  0  0  4  0  0  0  0  0  0
    2.8579    0.8250    0.0000 N   0  0  0  0  0  4  0  0  0  0  0  0
    2.1434    1.2375    0.0000 C   0  0  0  0  0  4  0  0  0  0  0  0
    2.8579    0.0000    0.0000 C   0  0  0  0  0  4  0  0  0  0  0  0
    5.0013    1.2375    0.0000 C   0  0  0  0  0  4  0  0  0  0  0  0
    5.7158    0.8250    0.0000 N   0  0  0  0  0  3  0  0  0  0  0  0
    6.4302    1.2375    0.0000 C   0  0  0  0  0  4  0  0  0  0  0  0
    6.4302    2.0625    0.0000 C   0  0  0  0  0  4  0  0  0  0  0  0
    7.1447    2.4750    0.0000 C   0  0  0  0  0  4  0  0  0  0  0  0
    7.8592    2.0625    0.0000 C   0  0  0  0  0  4  0  0  0  0  0  0
    7.8592    1.2375    0.0000 C   0  0  0  0  0  4  0  0  0  0  0  0
    7.1447    0.8250    0.0000 C   0  0  0  0  0  4  0  0  0  0  0  0
    7.1447    0.0000    0.0000 S   0  0  0  0  0  2  0  0  0  0  0  0
    6.4302   -0.4125    0.0000 C   0  0  0  0  0  4  0  0  0  0  0  0
    6.4302   -1.2375    0.0000 C   0  0  0  0  0  4  0  0  0  0  0  0
    5.7158   -1.6500    0.0000 C   0  0  0  0  0  4  0  0  0  0  0  0
    5.0013   -1.2375    0.0000 C   0  0  0  0  0  4  0  0  0  0  0  0
    5.0013   -0.4125    0.0000 C   0  0  0  0  0  4  0  0  0  0  0  0
    5.7158    0.0000    0.0000 C   0  0  0  0  0  4  0  0  0  0  0  0
  1  2  1  0  0  0  0 
  2  3  1  0  0  0  0 
  3  4  1  0  0  0  0 
  4  5  1  0  0  0  0 
  4  6  1  0  0  0  0 
  2  7  1  0  0  0  0 
  7  8  1  0  0  0  0 
  8  9  1  0  0  0  0 
  9 10  2  0  0  0  0 
 10 11  1  0  0  0  0 
 11 12  2  0  0  0  0 
 12 13  1  0  0  0  0 
 13 14  2  0  0  0  0 
  9 14  1  0  0  0  0 
 14 15  1  0  0  0  0 
 15 16  1  0  0  0  0 
 16 17  2  0  0  0  0 
 17 18  1  0  0  0  0 
 18 19  2  0  0  0  0 
 19 20  1  0  0  0  0 
 20 21  2  0  0  0  0 
  8 21  1  0  0  0  0 
 16 21  1  0  0  0  0 
M  CHG  1   4   1
M  END
> <Mol Weight>
298.446

> <Formula>
C18H22N2S

> <CdId>
524

> <RCDK_LipinskiFailures>
0

> <source>
BYLER

> <name>
trimeprazine

> <ABUNDANCE>
100% at pH 4.8

> <BLABBER_CHARGE>
1

> <inchi>
1S/C18H22N2S/c1-14(12-19(2)3)13-20-15-8-4-6-10-17(15)21-18-11-7-5-9-16(18)20/h4-11,14H,12-13H2,1-3H3

> <activity>
1

$$$$

  CDK     0331111707

 28 31  0  0  0  0  0  0  0  0999 V2000
    5.7158    4.9500    0.0000 C   0  0  0  0  0  4  0  0  0  0  0  0
    5.0013    4.5375    0.0000 N   0  0  0  0  0  4  0  0  0  0  0  0
    5.0013    3.7125    0.0000 C   0  0  0  0  0  4  0  0  0  0  0  0
    4.2868    3.3000    0.0000 C   0  0  0  0  0  4  0  0  0  0  0  0
    3.5724    3.7125    0.0000 N   0  0  0  0  0  3  0  0  0  0  0  0
    2.8579    3.3000    0.0000 C   0  0  0  0  0  4  0  0  0  0  0  0
    2.8579    2.4750    0.0000 C   0  0  0  0  0  4  0  0  0  0  0  0
    2.1434    2.0625    0.0000 C   0  0  0  0  0  4  0  0  0  0  0  0
    2.1434    1.2375    0.0000 N   0  0  0  0  0  3  0  0  0  0  0  0
    2.8579    0.8250    0.0000 C   0  0  0  0  0  4  0  0  0  0  0  0
    3.5724    1.2375    0.0000 C   0  0  0  0  0  4  0  0  0  0  0  0
    4.2868    0.8250    0.0000 C   0  0  0  0  0  4  0  0  0  0  0  0
    4.2868   -0.0000    0.0000 C   0  0  0  0  0  4  0  0  0  0  0  0
    3.5724   -0.4125    0.0000 C   0  0  0  0  0  4  0  0  0  0  0  0
    2.8579    0.0000    0.0000 C   0  0  0  0  0  4  0  0  0  0  0  0
    2.1434   -0.4125    0.0000 S   0  0  0  0  0  2  0  0  0  0  0  0
    1.4289    0.0000    0.0000 C   0  0  0  0  0  4  0  0  0  0  0  0
    0.7145   -0.4125    0.0000 C   0  0  0  0  0  4  0  0  0  0  0  0
    0.0000    0.0000    0.0000 C   0  0  0  0  0  4  0  0  0  0  0  0
    0.0000    0.8250    0.0000 C   0  0  0  0  0  4  0  0  0  0  0  0
    0.7145    1.2375    0.0000 C   0  0  0  0  0  4  0  0  0  0  0  0
    1.4289    0.8250    0.0000 C   0  0  0  0  0  4  0  0  0  0  0  0
   -0.7145    1.2375    0.0000 C   0  0  0  0  0  4  0  0  0  0  0  0
   -1.4289    1.6500    0.0000 F   0  0  0  0  0  1  0  0  0  0  0  0
   -0.3020    1.9520    0.0000 F   0  0  0  0  0  1  0  0  0  0  0  0
   -1.1270    0.5230    0.0000 F   0  0  0  0  0  1  0  0  0  0  0  0
    3.5724    4.5375    0.0000 C   0  0  0  0  0  4  0  0  0  0  0  0
    4.2868    4.9500    0.0000 C   0  0  0  0  0  4  0  0  0  0  0  0
  1  2  1  0  0  0  0 
  2  3  1  0  0  0  0 
  3  4  1  0  0  0  0 
  4  5  1  0  0  0  0 
  5  6  1  0  0  0  0 
  6  7  1  0  0  0  0 
  7  8  1  0  0  0  0 
  8  9  1  0  0  0  0 
  9 10  1  0  0  0  0 
 10 11  2  0  0  0  0 
 11 12  1  0  0  0  0 
 12 13  2  0  0  0  0 
 13 14  1  0  0  0  0 
 14 15  2  0  0  0  0 
 10 15  1  0  0  0  0 
 15 16  1  0  0  0  0 
 16 17  1  0  0  0  0 
 17 18  2  0  0  0  0 
 18 19  1  0  0  0  0 
 19 20  2  0  0  0  0 
 20 21  1  0  0  0  0 
 21 22  2  0  0  0  0 
  9 22  1  0  0  0  0 
 17 22  1  0  0  0  0 
 20 23  1  0  0  0  0 
 23 24  1  0  0  0  0 
 23 25  1  0  0  0  0 
 23 26  1  0  0  0  0 
  5 27  1  0  0  0  0 
 27 28  1  0  0  0  0 
  2 28  1  0  0  0  0 
M  CHG  1   2   1
M  END
> <Mol Weight>
407.496

> <Formula>
C21H24F3N3S

> <CdId>
521

> <RCDK_LipinskiFailures>
0

> <source>
BYLER

> <name>
trifluperazine

> <ABUNDANCE>
76.81% at pH 4.8

> <BLABBER_CHARGE>
1

> <inchi>
1S/C21H24F3N3S/c1-25-11-13-26(14-12-25)9-4-10-27-17-5-2-3-6-19(17)28-20-8-7-16(15-18(20)27)21(22,23)24/h2-3,5-8,15H,4,9-14H2,1H3

> <activity>
1

$$$$

  CDK     0331111707

 14 14  0  0  0  0  0  0  0  0999 V2000
    2.8579    3.3000    0.0000 C   0  0  0  0  0  4  0  0  0  0  0  0
    2.8579    2.4750    0.0000 C   0  0  0  0  0  4  0  0  0  0  0  0
    3.5724    2.0625    0.0000 N   0  0  0  0  0  4  0  0  0  0  0  0
    2.1434    2.0625    0.0000 C   0  0  0  0  0  4  0  0  0  0  0  0
    1.4289    2.4750    0.0000 O   0  0  0  0  0  2  0  0  0  0  0  0
    2.1434    1.2375    0.0000 N   0  0  0  0  0  3  0  0  0  0  0  0
    1.4289    0.8250    0.0000 C   0  0  0  0  0  4  0  0  0  0  0  0
    1.4289   -0.0000    0.0000 C   0  0  0  0  0  4  0  0  0  0  0  0
    2.1434   -0.4125    0.0000 C   0  0  0  0  0  4  0  0  0  0  0  0
    0.7145   -0.4125    0.0000 C   0  0  0  0  0  4  0  0  0  0  0  0
    0.0000    0.0000    0.0000 C   0  0  0  0  0  4  0  0  0  0  0  0
    0.0000    0.8250    0.0000 C   0  0  0  0  0  4  0  0  0  0  0  0
    0.7145    1.2375    0.0000 C   0  0  0  0  0  4  0  0  0  0  0  0
    0.7145    2.0625    0.0000 C   0  0  0  0  0  4  0  0  0  0  0  0
  1  2  1  0  0  0  0 
  2  3  1  0  0  0  0 
  2  4  1  0  0  0  0 
  4  5  2  0  0  0  0 
  4  6  1  0  0  0  0 
  6  7  1  0  0  0  0 
  7  8  2  0  0  0  0 
  8  9  1  0  0  0  0 
  8 10  1  0  0  0  0 
 10 11  2  0  0  0  0 
 11 12  1  0  0  0  0 
 12 13  2  0  0  0  0 
  7 13  1  0  0  0  0 
 13 14  1  0  0  0  0 
M  CHG  1   3   1
M  END
> <Mol Weight>
192.2575

> <Formula>
C11H16N2O

> <CdId>
513

> <RCDK_LipinskiFailures>
0

> <source>
BYLER

> <name>
tocainide

> <ABUNDANCE>
99.83% at pH 4.8

> <BLABBER_CHARGE>
1

> <inchi>
1S/C11H16N2O/c1-7-5-4-6-8(2)10(7)13-11(14)9(3)12/h4-6,9H,12H2,1-3H3,(H,13,14)

> <activity>
1

$$$$
